#======================================================================

# CRYSTAL DATA

#----------------------------------------------------------------------

data_VESTA_phase_1


_chemical_name_common                  'POSCAR\(16)                           '
_cell_length_a                         14.76000
_cell_length_b                         14.76000
_cell_length_c                         15.00000
_cell_angle_alpha                      90
_cell_angle_beta                       90
_cell_angle_gamma                      120
_space_group_name_H-M_alt              'P 1'
_space_group_IT_number                 1

loop_
_space_group_symop_operation_xyz
   'x, y, z'

loop_
   _atom_site_label
   _atom_site_occupancy
   _atom_site_fract_x
   _atom_site_fract_y
   _atom_site_fract_z
   _atom_site_adp_type
   _atom_site_B_iso_or_equiv
   _atom_site_type_symbol
   C1         1.0    -0.001970      0.995022      0.172215     Biso  1.000000 C
   C2         1.0     0.110717      0.052564      0.170641     Biso  1.000000 C
   C3         1.0     0.001877      0.163547      0.172876     Biso  1.000000 C
   C4         1.0     0.115759      0.222054      0.174619     Biso  1.000000 C
   C5         1.0    -0.001058      0.329116      0.166425     Biso  1.000000 C
   C6         1.0     0.110179      0.386594      0.166222     Biso  1.000000 C
   C7         1.0     0.996482      0.495506      0.160360     Biso  1.000000 C
   C8         1.0     0.106854      0.552586      0.157227     Biso  1.000000 C
   C9         1.0    -0.002997      0.662095      0.160735     Biso  1.000000 C
   C10        1.0     0.107839      0.719302      0.156462     Biso  1.000000 C
   C11        1.0    -0.002683      0.828587      0.166711     Biso  1.000000 C
   C12        1.0     0.108505      0.885497      0.162871     Biso  1.000000 C
   C13        1.0     0.165401     -0.003128      0.165577     Biso  1.000000 C
   C14        1.0     0.277195      0.053025      0.163512     Biso  1.000000 C
   C15        1.0     0.171667      0.165553      0.173900     Biso  1.000000 C
   C16        1.0     0.170247      0.334887      0.172605     Biso  1.000000 C
   C17        1.0     0.162035      0.497659      0.160530     Biso  1.000000 C
   C18        1.0     0.271845      0.555894      0.160897     Biso  1.000000 C
   C19        1.0     0.162636      0.663942      0.154415     Biso  1.000000 C
   C20        1.0     0.273429      0.720921      0.153425     Biso  1.000000 C
   C21        1.0     0.163944      0.830339      0.157470     Biso  1.000000 C
   C22        1.0     0.275079      0.886660      0.155531     Biso  1.000000 C
   C23        1.0     0.332190     -0.002264      0.158791     Biso  1.000000 C
   C24        1.0     0.443074      0.053469      0.159563     Biso  1.000000 C
   C25        1.0     0.332965      0.163861      0.168283     Biso  1.000000 C
   C26        1.0     0.446212      0.221541      0.167971     Biso  1.000000 C
   C27        1.0     0.326189      0.501580      0.169609     Biso  1.000000 C
   C28        1.0     0.436129      0.558043      0.174105     Biso  1.000000 C
   C29        1.0     0.328023      0.666070      0.156720     Biso  1.000000 C
   C30        1.0     0.438713      0.722373      0.160785     Biso  1.000000 C
   C31        1.0     0.330287      0.831785      0.153543     Biso  1.000000 C
   C32        1.0     0.441793      0.887679      0.156159     Biso  1.000000 C
   C33        1.0     0.498648     -0.001859      0.158835     Biso  1.000000 C
   C34        1.0     0.609776      0.051651      0.162842     Biso  1.000000 C
   C35        1.0     0.499140      0.164484      0.163745     Biso  1.000000 C
   C36        1.0     0.610405      0.219601      0.165189     Biso  1.000000 C
   C37        1.0     0.608912      0.388196      0.172218     Biso  1.000000 C
   C38        1.0     0.492337      0.668032      0.169500     Biso  1.000000 C
   C39        1.0     0.496657      0.832374      0.160043     Biso  1.000000 C
   C40        1.0     0.607425      0.883398      0.165688     Biso  1.000000 C
   C41        1.0     0.664706      0.994919      0.165890     Biso  1.000000 C
   C42        1.0     0.776115      0.049312      0.169562     Biso  1.000000 C
   C43        1.0     0.665746      0.163156      0.164655     Biso  1.000000 C
   C44        1.0     0.776885      0.217319      0.166362     Biso  1.000000 C
   C45        1.0     0.664775      0.330789      0.167845     Biso  1.000000 C
   C46        1.0     0.775769      0.384270      0.166468     Biso  1.000000 C
   C47        1.0     0.774182      0.548650      0.170937     Biso  1.000000 C
   C48        1.0     0.658824      0.822665      0.171599     Biso  1.000000 C
   C49        1.0     0.771760      0.877600      0.173363     Biso  1.000000 C
   C50        1.0     0.830131      0.991616      0.172345     Biso  1.000000 C
   C51        1.0     0.942836      0.050578      0.173251     Biso  1.000000 C
   C52        1.0     0.832685      0.161052      0.168558     Biso  1.000000 C
   C53        1.0     0.944553      0.217693      0.169826     Biso  1.000000 C
   C54        1.0     0.831424      0.328457      0.165522     Biso  1.000000 C
   C55        1.0     0.942742      0.384423      0.163876     Biso  1.000000 C
   C56        1.0     0.830679      0.495298      0.166346     Biso  1.000000 C
   C57        1.0     0.941548      0.551340      0.161796     Biso  1.000000 C
   C58        1.0     0.830999      0.660770      0.170835     Biso  1.000000 C
   C59        1.0     0.941430      0.716907      0.165717     Biso  1.000000 C
   C60        1.0     0.827493      0.821312      0.173839     Biso  1.000000 C
   C61        1.0     0.940473      0.882257      0.171350     Biso  1.000000 C
   C62        1.0     0.438438      0.421453      0.390007     Biso  1.000000 C
   N1         1.0     0.279350      0.217120      0.174284     Biso  1.000000 N
   N2         1.0     0.277742      0.394815      0.175306     Biso  1.000000 N
   N3         1.0     0.500461      0.330643      0.173165     Biso  1.000000 N
   N4         1.0     0.491146      0.508250      0.183051     Biso  1.000000 N
   N5         1.0     0.599478      0.714735      0.174708     Biso  1.000000 N
   N6         1.0     0.665080      0.496983      0.175486     Biso  1.000000 N
   N7         1.0     0.774887      0.712199      0.175083     Biso  1.000000 N
   Co1        1.0     0.631243      0.606491      0.180090     Biso  1.000000 Co
   Mn1        1.0     0.392333      0.366092      0.204194     Biso  1.000000 Mn
   O1         1.0     0.380046      0.344525      0.325247     Biso  1.000000 O
   H1         1.0     0.425514      0.489003      0.385429     Biso  1.000000 H
   H2         1.0     0.412474      0.385634      0.456614     Biso  1.000000 H
   H3         1.0     0.523403      0.451140      0.383772     Biso  1.000000 H
