#======================================================================

# CRYSTAL DATA

#----------------------------------------------------------------------

data_VESTA_phase_1


_chemical_name_common                  'jidi\(2)                              '
_cell_length_a                         14.76000
_cell_length_b                         14.76000
_cell_length_c                         15.00000
_cell_angle_alpha                      90
_cell_angle_beta                       90
_cell_angle_gamma                      120
_space_group_name_H-M_alt              'P 1'
_space_group_IT_number                 1

loop_
_space_group_symop_operation_xyz
   'x, y, z'

loop_
   _atom_site_label
   _atom_site_occupancy
   _atom_site_fract_x
   _atom_site_fract_y
   _atom_site_fract_z
   _atom_site_adp_type
   _atom_site_B_iso_or_equiv
   _atom_site_type_symbol
   C1         1.0     0.000794      0.998757      0.172273     Biso  1.000000 C
   C2         1.0     0.113406      0.056277      0.172279     Biso  1.000000 C
   C3         1.0     0.004283      0.166922      0.169869     Biso  1.000000 C
   C4         1.0     0.118273      0.225478      0.170507     Biso  1.000000 C
   C5         1.0     0.001308      0.332616      0.163241     Biso  1.000000 C
   C6         1.0     0.112736      0.389988      0.161519     Biso  1.000000 C
   C7         1.0     0.999027      0.499144      0.159249     Biso  1.000000 C
   C8         1.0     0.109496      0.556023      0.155856     Biso  1.000000 C
   C9         1.0     0.999706      0.665758      0.161634     Biso  1.000000 C
   C10        1.0     0.110694      0.722756      0.158843     Biso  1.000000 C
   C11        1.0     0.000183      0.832288      0.168294     Biso  1.000000 C
   C12        1.0     0.111592      0.889171      0.166514     Biso  1.000000 C
   C13        1.0     0.168040      0.000125      0.169655     Biso  1.000000 C
   C14        1.0     0.279825      0.055937      0.169172     Biso  1.000000 C
   C15        1.0     0.173833      0.168883      0.173214     Biso  1.000000 C
   C16        1.0     0.172533      0.338276      0.166549     Biso  1.000000 C
   C17        1.0     0.164631      0.501167      0.156485     Biso  1.000000 C
   C18        1.0     0.274800      0.559348      0.154481     Biso  1.000000 C
   C19        1.0     0.165415      0.667587      0.155016     Biso  1.000000 C
   C20        1.0     0.276172      0.724480      0.153618     Biso  1.000000 C
   C21        1.0     0.166770      0.833779      0.161503     Biso  1.000000 C
   C22        1.0     0.277691      0.889782      0.160583     Biso  1.000000 C
   C23        1.0     0.334722      0.000546      0.164963     Biso  1.000000 C
   C24        1.0     0.445517      0.056059      0.165711     Biso  1.000000 C
   C25        1.0     0.335904      0.166364      0.172989     Biso  1.000000 C
   C26        1.0     0.448460      0.223350      0.173582     Biso  1.000000 C
   C27        1.0     0.329186      0.505628      0.160224     Biso  1.000000 C
   C28        1.0     0.439744      0.562149      0.163632     Biso  1.000000 C
   C29        1.0     0.331163      0.670060      0.152744     Biso  1.000000 C
   C30        1.0     0.441334      0.726223      0.155928     Biso  1.000000 C
   C31        1.0     0.333035      0.835109      0.156860     Biso  1.000000 C
   C32        1.0     0.444337      0.890871      0.158934     Biso  1.000000 C
   C33        1.0     0.501232      0.001135      0.163120     Biso  1.000000 C
   C34        1.0     0.612305      0.054885      0.165378     Biso  1.000000 C
   C35        1.0     0.501674      0.166968      0.169806     Biso  1.000000 C
   C36        1.0     0.612942      0.222461      0.169242     Biso  1.000000 C
   C37        1.0     0.611589      0.391002      0.174271     Biso  1.000000 C
   C38        1.0     0.495871      0.671880      0.161052     Biso  1.000000 C
   C39        1.0     0.499290      0.835728      0.159082     Biso  1.000000 C
   C40        1.0     0.610177      0.887033      0.164304     Biso  1.000000 C
   C41        1.0     0.667359      0.998358      0.165895     Biso  1.000000 C
   C42        1.0     0.778703      0.052678      0.168460     Biso  1.000000 C
   C43        1.0     0.668191      0.166367      0.167261     Biso  1.000000 C
   C44        1.0     0.779452      0.220745      0.166583     Biso  1.000000 C
   C45        1.0     0.667416      0.333959      0.170166     Biso  1.000000 C
   C46        1.0     0.778234      0.387733      0.166748     Biso  1.000000 C
   C47        1.0     0.776364      0.552164      0.169485     Biso  1.000000 C
   C48        1.0     0.661741      0.826489      0.169300     Biso  1.000000 C
   C49        1.0     0.774348      0.881079      0.172990     Biso  1.000000 C
   C50        1.0     0.832649      0.995105      0.171336     Biso  1.000000 C
   C51        1.0     0.945493      0.054232      0.171896     Biso  1.000000 C
   C52        1.0     0.835211      0.164553      0.167317     Biso  1.000000 C
   C53        1.0     0.946930      0.221146      0.166996     Biso  1.000000 C
   C54        1.0     0.833914      0.331911      0.164962     Biso  1.000000 C
   C55        1.0     0.945158      0.387882      0.162073     Biso  1.000000 C
   C56        1.0     0.833114      0.498851      0.165626     Biso  1.000000 C
   C57        1.0     0.944036      0.554883      0.161507     Biso  1.000000 C
   C58        1.0     0.833685      0.664760      0.169672     Biso  1.000000 C
   C59        1.0     0.944566      0.720832      0.166079     Biso  1.000000 C
   C60        1.0     0.830544      0.824937      0.173920     Biso  1.000000 C
   C61        1.0     0.943668      0.886158      0.171650     Biso  1.000000 C
   C62        1.0     0.633213      0.609919      0.313743     Biso  1.000000 C
   N1         1.0     0.282257      0.220664      0.175207     Biso  1.000000 N
   N2         1.0     0.280444      0.398408      0.167687     Biso  1.000000 N
   N3         1.0     0.503044      0.333374      0.177431     Biso  1.000000 N
   N4         1.0     0.493514      0.511626      0.174192     Biso  1.000000 N
   N5         1.0     0.602062      0.718642      0.169286     Biso  1.000000 N
   N6         1.0     0.667623      0.499833      0.174367     Biso  1.000000 N
   N7         1.0     0.778984      0.716746      0.175070     Biso  1.000000 N
   Co1        1.0     0.633457      0.610074      0.196916     Biso  1.000000 Co
   Mn1        1.0     0.393700      0.368607      0.178460     Biso  1.000000 Mn
   O1         1.0     0.629337      0.606816      0.391312     Biso  1.000000 O
