#======================================================================

# CRYSTAL DATA

#----------------------------------------------------------------------

data_VESTA_phase_1


_chemical_name_common                  'jidi\(2)                              '
_cell_length_a                         14.76000
_cell_length_b                         14.76000
_cell_length_c                         15.00000
_cell_angle_alpha                      90
_cell_angle_beta                       90
_cell_angle_gamma                      120
_space_group_name_H-M_alt              'P 1'
_space_group_IT_number                 1

loop_
_space_group_symop_operation_xyz
   'x, y, z'

loop_
   _atom_site_label
   _atom_site_occupancy
   _atom_site_fract_x
   _atom_site_fract_y
   _atom_site_fract_z
   _atom_site_adp_type
   _atom_site_B_iso_or_equiv
   _atom_site_type_symbol
   C1         1.0     0.000586      0.998575      0.171871     Biso  1.000000 C
   C2         1.0     0.113106      0.056014      0.172321     Biso  1.000000 C
   C3         1.0     0.004067      0.166676      0.168994     Biso  1.000000 C
   C4         1.0     0.118080      0.225252      0.169538     Biso  1.000000 C
   C5         1.0     0.001340      0.332445      0.164285     Biso  1.000000 C
   C6         1.0     0.112610      0.389840      0.162120     Biso  1.000000 C
   C7         1.0     0.999282      0.499028      0.162949     Biso  1.000000 C
   C8         1.0     0.109567      0.556005      0.159000     Biso  1.000000 C
   C9         1.0     0.999831      0.665647      0.166111     Biso  1.000000 C
   C10        1.0     0.110708      0.722698      0.162698     Biso  1.000000 C
   C11        1.0     0.000117      0.832223      0.170378     Biso  1.000000 C
   C12        1.0     0.111379      0.889001      0.168942     Biso  1.000000 C
   C13        1.0     0.167888      0.000063      0.170938     Biso  1.000000 C
   C14        1.0     0.279698      0.055879      0.170609     Biso  1.000000 C
   C15        1.0     0.173619      0.168751      0.172408     Biso  1.000000 C
   C16        1.0     0.172500      0.338031      0.165481     Biso  1.000000 C
   C17        1.0     0.164616      0.501071      0.158009     Biso  1.000000 C
   C18        1.0     0.274488      0.559440      0.155263     Biso  1.000000 C
   C19        1.0     0.165384      0.667521      0.158519     Biso  1.000000 C
   C20        1.0     0.275991      0.724460      0.156298     Biso  1.000000 C
   C21        1.0     0.166696      0.833661      0.164767     Biso  1.000000 C
   C22        1.0     0.277533      0.889653      0.163336     Biso  1.000000 C
   C23        1.0     0.334619      0.000509      0.167101     Biso  1.000000 C
   C24        1.0     0.445370      0.055984      0.167083     Biso  1.000000 C
   C25        1.0     0.335774      0.166381      0.173130     Biso  1.000000 C
   C26        1.0     0.448400      0.223293      0.173466     Biso  1.000000 C
   C27        1.0     0.329023      0.505713      0.158608     Biso  1.000000 C
   C28        1.0     0.439208      0.561692      0.159947     Biso  1.000000 C
   C29        1.0     0.330779      0.669966      0.154093     Biso  1.000000 C
   C30        1.0     0.440996      0.725939      0.156051     Biso  1.000000 C
   C31        1.0     0.332813      0.835044      0.159189     Biso  1.000000 C
   C32        1.0     0.444152      0.890764      0.160105     Biso  1.000000 C
   C33        1.0     0.501089      0.000987      0.164028     Biso  1.000000 C
   C34        1.0     0.612149      0.054712      0.165533     Biso  1.000000 C
   C35        1.0     0.501565      0.166850      0.170421     Biso  1.000000 C
   C36        1.0     0.612936      0.222408      0.169814     Biso  1.000000 C
   C37        1.0     0.612024      0.391223      0.173843     Biso  1.000000 C
   C38        1.0     0.495249      0.671479      0.159279     Biso  1.000000 C
   C39        1.0     0.499086      0.835574      0.159125     Biso  1.000000 C
   C40        1.0     0.609985      0.886938      0.163035     Biso  1.000000 C
   C41        1.0     0.667142      0.998156      0.165139     Biso  1.000000 C
   C42        1.0     0.778616      0.052536      0.167421     Biso  1.000000 C
   C43        1.0     0.668167      0.166242      0.167791     Biso  1.000000 C
   C44        1.0     0.779403      0.220600      0.167274     Biso  1.000000 C
   C45        1.0     0.667696      0.333777      0.171027     Biso  1.000000 C
   C46        1.0     0.778465      0.387565      0.169333     Biso  1.000000 C
   C47        1.0     0.776912      0.551987      0.172589     Biso  1.000000 C
   C48        1.0     0.661541      0.826124      0.166285     Biso  1.000000 C
   C49        1.0     0.774234      0.880871      0.170113     Biso  1.000000 C
   C50        1.0     0.832475      0.994880      0.169473     Biso  1.000000 C
   C51        1.0     0.945226      0.054019      0.170624     Biso  1.000000 C
   C52        1.0     0.835143      0.164268      0.167137     Biso  1.000000 C
   C53        1.0     0.946849      0.220914      0.166851     Biso  1.000000 C
   C54        1.0     0.834109      0.331744      0.167165     Biso  1.000000 C
   C55        1.0     0.945358      0.387780      0.164559     Biso  1.000000 C
   C56        1.0     0.833547      0.498715      0.169763     Biso  1.000000 C
   C57        1.0     0.944374      0.554812      0.166112     Biso  1.000000 C
   C58        1.0     0.833829      0.664562      0.171929     Biso  1.000000 C
   C59        1.0     0.944472      0.720577      0.169670     Biso  1.000000 C
   C60        1.0     0.830352      0.824877      0.171871     Biso  1.000000 C
   C61        1.0     0.943451      0.886009      0.171777     Biso  1.000000 C
   C62        1.0     0.629696      0.609292      0.303981     Biso  1.000000 C
   N1         1.0     0.281791      0.220440      0.173947     Biso  1.000000 N
   N2         1.0     0.280085      0.398247      0.164704     Biso  1.000000 N
   N3         1.0     0.503541      0.333487      0.175834     Biso  1.000000 N
   N4         1.0     0.493433      0.510904      0.165430     Biso  1.000000 N
   N5         1.0     0.601890      0.718608      0.165275     Biso  1.000000 N
   N6         1.0     0.667916      0.499538      0.174257     Biso  1.000000 N
   N7         1.0     0.778574      0.716473      0.172397     Biso  1.000000 N
   Co1        1.0     0.633713      0.610296      0.180642     Biso  1.000000 Co
   Mn1        1.0     0.394514      0.369181      0.173735     Biso  1.000000 Mn
   O1         1.0     0.564041      0.610185      0.351432     Biso  1.000000 O
   H1         1.0     0.699734      0.608098      0.331885     Biso  1.000000 H
