#======================================================================

# CRYSTAL DATA

#----------------------------------------------------------------------

data_VESTA_phase_1


_chemical_name_common                  'POSCAR\(16)                           '
_cell_length_a                         14.76000
_cell_length_b                         14.76000
_cell_length_c                         15.00000
_cell_angle_alpha                      90
_cell_angle_beta                       90
_cell_angle_gamma                      120
_space_group_name_H-M_alt              'P 1'
_space_group_IT_number                 1

loop_
_space_group_symop_operation_xyz
   'x, y, z'

loop_
   _atom_site_label
   _atom_site_occupancy
   _atom_site_fract_x
   _atom_site_fract_y
   _atom_site_fract_z
   _atom_site_adp_type
   _atom_site_B_iso_or_equiv
   _atom_site_type_symbol
   C1         1.0     0.000143      0.998121      0.168849     Biso  1.000000 C
   C2         1.0     0.112746      0.055512      0.167764     Biso  1.000000 C
   C3         1.0     0.004019      0.166569      0.168653     Biso  1.000000 C
   C4         1.0     0.117883      0.225031      0.169972     Biso  1.000000 C
   C5         1.0     0.001080      0.332220      0.165873     Biso  1.000000 C
   C6         1.0     0.112310      0.389536      0.165426     Biso  1.000000 C
   C7         1.0     0.998793      0.498717      0.164645     Biso  1.000000 C
   C8         1.0     0.109182      0.555732      0.162671     Biso  1.000000 C
   C9         1.0    -0.000688      0.665239      0.165731     Biso  1.000000 C
   C10        1.0     0.110127      0.722351      0.163090     Biso  1.000000 C
   C11        1.0    -0.000469      0.831745      0.167650     Biso  1.000000 C
   C12        1.0     0.110650      0.888462      0.165151     Biso  1.000000 C
   C13        1.0     0.167454     -0.000182      0.165295     Biso  1.000000 C
   C14        1.0     0.279201      0.055829      0.163518     Biso  1.000000 C
   C15        1.0     0.173695      0.168535      0.169598     Biso  1.000000 C
   C16        1.0     0.172452      0.337780      0.168493     Biso  1.000000 C
   C17        1.0     0.164269      0.500698      0.163105     Biso  1.000000 C
   C18        1.0     0.273980      0.558900      0.162797     Biso  1.000000 C
   C19        1.0     0.164918      0.667030      0.161562     Biso  1.000000 C
   C20        1.0     0.275545      0.723935      0.160480     Biso  1.000000 C
   C21        1.0     0.166150      0.833277      0.162951     Biso  1.000000 C
   C22        1.0     0.277206      0.889446      0.161255     Biso  1.000000 C
   C23        1.0     0.334229      0.000502      0.161762     Biso  1.000000 C
   C24        1.0     0.445017      0.056120      0.162147     Biso  1.000000 C
   C25        1.0     0.334963      0.166728      0.165842     Biso  1.000000 C
   C26        1.0     0.448165      0.224282      0.165956     Biso  1.000000 C
   C27        1.0     0.328414      0.504376      0.166456     Biso  1.000000 C
   C28        1.0     0.438440      0.560845      0.169515     Biso  1.000000 C
   C29        1.0     0.330086      0.669095      0.161239     Biso  1.000000 C
   C30        1.0     0.440761      0.725308      0.162791     Biso  1.000000 C
   C31        1.0     0.332426      0.834668      0.160399     Biso  1.000000 C
   C32        1.0     0.443861      0.890481      0.161133     Biso  1.000000 C
   C33        1.0     0.500670      0.000929      0.162144     Biso  1.000000 C
   C34        1.0     0.611857      0.054554      0.163860     Biso  1.000000 C
   C35        1.0     0.501108      0.167174      0.164060     Biso  1.000000 C
   C36        1.0     0.612387      0.222368      0.165384     Biso  1.000000 C
   C37        1.0     0.611003      0.390998      0.169816     Biso  1.000000 C
   C38        1.0     0.494567      0.670891      0.166934     Biso  1.000000 C
   C39        1.0     0.498760      0.835243      0.162640     Biso  1.000000 C
   C40        1.0     0.609630      0.886390      0.165140     Biso  1.000000 C
   C41        1.0     0.666875      0.997940      0.165062     Biso  1.000000 C
   C42        1.0     0.778329      0.052418      0.166866     Biso  1.000000 C
   C43        1.0     0.667818      0.166074      0.165037     Biso  1.000000 C
   C44        1.0     0.778966      0.220338      0.166172     Biso  1.000000 C
   C45        1.0     0.666855      0.333585      0.167510     Biso  1.000000 C
   C46        1.0     0.777897      0.387257      0.167651     Biso  1.000000 C
   C47        1.0     0.776360      0.551684      0.170736     Biso  1.000000 C
   C48        1.0     0.661071      0.825602      0.168275     Biso  1.000000 C
   C49        1.0     0.773959      0.880601      0.169422     Biso  1.000000 C
   C50        1.0     0.832291      0.994643      0.168375     Biso  1.000000 C
   C51        1.0     0.944959      0.053681      0.168890     Biso  1.000000 C
   C52        1.0     0.834827      0.164110      0.166669     Biso  1.000000 C
   C53        1.0     0.946656      0.220736      0.167152     Biso  1.000000 C
   C54        1.0     0.833591      0.331538      0.166564     Biso  1.000000 C
   C55        1.0     0.944920      0.387551      0.165672     Biso  1.000000 C
   C56        1.0     0.832914      0.498358      0.168503     Biso  1.000000 C
   C57        1.0     0.943881      0.554516      0.166244     Biso  1.000000 C
   C58        1.0     0.833243      0.663919      0.170543     Biso  1.000000 C
   C59        1.0     0.943697      0.720070      0.168072     Biso  1.000000 C
   C60        1.0     0.829693      0.824370      0.170400     Biso  1.000000 C
   C61        1.0     0.942659      0.885431      0.169133     Biso  1.000000 C
   N1         1.0     0.281354      0.220112      0.170024     Biso  1.000000 N
   N2         1.0     0.279886      0.397558      0.169522     Biso  1.000000 N
   N3         1.0     0.502598      0.333507      0.169288     Biso  1.000000 N
   N4         1.0     0.493739      0.511060      0.175577     Biso  1.000000 N
   N5         1.0     0.601799      0.717603      0.170078     Biso  1.000000 N
   N6         1.0     0.667155      0.499855      0.172458     Biso  1.000000 N
   N7         1.0     0.777060      0.715303      0.171720     Biso  1.000000 N
   Co1        1.0     0.633488      0.609357      0.174238     Biso  1.000000 Co
   Mn1        1.0     0.394524      0.369297      0.198454     Biso  1.000000 Mn
   O1         1.0     0.382412      0.352890      0.321074     Biso  1.000000 O
   H1         1.0     0.439676      0.410571      0.353112     Biso  1.000000 H
