#======================================================================

# CRYSTAL DATA

#----------------------------------------------------------------------

data_VESTA_phase_1


_chemical_name_common                  'POSCAR\(4)                            '
_cell_length_a                         14.76000
_cell_length_b                         14.76000
_cell_length_c                         15.00000
_cell_angle_alpha                      90
_cell_angle_beta                       90
_cell_angle_gamma                      120
_space_group_name_H-M_alt              'P 1'
_space_group_IT_number                 1

loop_
_space_group_symop_operation_xyz
   'x, y, z'

loop_
   _atom_site_label
   _atom_site_occupancy
   _atom_site_fract_x
   _atom_site_fract_y
   _atom_site_fract_z
   _atom_site_adp_type
   _atom_site_B_iso_or_equiv
   _atom_site_type_symbol
   C1         1.0     0.000480      0.999913      0.167845     Biso  1.000000 C
   C2         1.0     0.112963      0.057100      0.166249     Biso  1.000000 C
   C3         1.0     0.004124      0.168377      0.170847     Biso  1.000000 C
   C4         1.0     0.117874      0.226579      0.174171     Biso  1.000000 C
   C5         1.0     0.001341      0.334071      0.163476     Biso  1.000000 C
   C6         1.0     0.112546      0.391362      0.166041     Biso  1.000000 C
   C7         1.0     0.999424      0.500478      0.154160     Biso  1.000000 C
   C8         1.0     0.110000      0.557203      0.152585     Biso  1.000000 C
   C9         1.0    -0.000242      0.667061      0.152196     Biso  1.000000 C
   C10        1.0     0.110682      0.723891      0.148494     Biso  1.000000 C
   C11        1.0     0.000083      0.833746      0.158839     Biso  1.000000 C
   C12        1.0     0.111266      0.890387      0.154912     Biso  1.000000 C
   C13        1.0     0.167824      0.001512      0.159003     Biso  1.000000 C
   C14        1.0     0.279633      0.057468      0.156080     Biso  1.000000 C
   C15        1.0     0.173262      0.169726      0.172115     Biso  1.000000 C
   C16        1.0     0.172465      0.339751      0.174841     Biso  1.000000 C
   C17        1.0     0.165217      0.502399      0.159880     Biso  1.000000 C
   C18        1.0     0.275162      0.560618      0.164683     Biso  1.000000 C
   C19        1.0     0.165686      0.668593      0.148509     Biso  1.000000 C
   C20        1.0     0.276305      0.725426      0.149296     Biso  1.000000 C
   C21        1.0     0.166695      0.834974      0.149083     Biso  1.000000 C
   C22        1.0     0.277693      0.891055      0.147594     Biso  1.000000 C
   C23        1.0     0.334600      0.002160      0.150482     Biso  1.000000 C
   C24        1.0     0.445422      0.057946      0.151933     Biso  1.000000 C
   C25        1.0     0.335330      0.168042      0.162535     Biso  1.000000 C
   C26        1.0     0.448442      0.226231      0.160506     Biso  1.000000 C
   C27        1.0     0.329590      0.507001      0.181229     Biso  1.000000 C
   C28        1.0     0.438122      0.565244      0.194670     Biso  1.000000 C
   C29        1.0     0.331079      0.670672      0.158220     Biso  1.000000 C
   C30        1.0     0.441226      0.727108      0.163829     Biso  1.000000 C
   C31        1.0     0.333048      0.836130      0.147701     Biso  1.000000 C
   C32        1.0     0.444456      0.892123      0.151170     Biso  1.000000 C
   C33        1.0     0.501186      0.002756      0.152318     Biso  1.000000 C
   C34        1.0     0.612192      0.056568      0.157206     Biso  1.000000 C
   C35        1.0     0.501329      0.169047      0.156234     Biso  1.000000 C
   C36        1.0     0.612621      0.224397      0.157890     Biso  1.000000 C
   C37        1.0     0.611064      0.393358      0.164162     Biso  1.000000 C
   C38        1.0     0.494776      0.672965      0.179652     Biso  1.000000 C
   C39        1.0     0.499195      0.836943      0.158369     Biso  1.000000 C
   C40        1.0     0.609994      0.888646      0.164337     Biso  1.000000 C
   C41        1.0     0.667166      0.999917      0.162115     Biso  1.000000 C
   C42        1.0     0.778566      0.054375      0.166033     Biso  1.000000 C
   C43        1.0     0.668089      0.168113      0.158408     Biso  1.000000 C
   C44        1.0     0.779239      0.222431      0.160882     Biso  1.000000 C
   C45        1.0     0.666991      0.335763      0.160083     Biso  1.000000 C
   C46        1.0     0.777982      0.389251      0.158984     Biso  1.000000 C
   C47        1.0     0.776511      0.553749      0.161801     Biso  1.000000 C
   C48        1.0     0.661601      0.828293      0.172084     Biso  1.000000 C
   C49        1.0     0.774409      0.882781      0.170916     Biso  1.000000 C
   C50        1.0     0.832627      0.996770      0.169379     Biso  1.000000 C
   C51        1.0     0.945332      0.055618      0.170242     Biso  1.000000 C
   C52        1.0     0.835077      0.166122      0.164474     Biso  1.000000 C
   C53        1.0     0.946738      0.222539      0.166921     Biso  1.000000 C
   C54        1.0     0.833844      0.333520      0.159323     Biso  1.000000 C
   C55        1.0     0.945277      0.389386      0.158753     Biso  1.000000 C
   C56        1.0     0.833219      0.500437      0.157960     Biso  1.000000 C
   C57        1.0     0.944267      0.556314      0.153865     Biso  1.000000 C
   C58        1.0     0.833875      0.666136      0.162159     Biso  1.000000 C
   C59        1.0     0.944266      0.722033      0.157013     Biso  1.000000 C
   C60        1.0     0.830365      0.826577      0.168759     Biso  1.000000 C
   C61        1.0     0.943350      0.887385      0.165271     Biso  1.000000 C
   C62        1.0     0.494758      0.493301      0.318881     Biso  1.000000 C
   N1         1.0     0.281055      0.220539      0.173574     Biso  1.000000 N
   N2         1.0     0.279042      0.399157      0.182778     Biso  1.000000 N
   N3         1.0     0.502587      0.335831      0.165244     Biso  1.000000 N
   N4         1.0     0.497063      0.517535      0.218711     Biso  1.000000 N
   N5         1.0     0.602790      0.720856      0.179783     Biso  1.000000 N
   N6         1.0     0.667539      0.502312      0.166748     Biso  1.000000 N
   N7         1.0     0.778128      0.717801      0.168210     Biso  1.000000 N
   Co1        1.0     0.636486      0.615664      0.181066     Biso  1.000000 Co
   Mn1        1.0     0.390866      0.365417      0.202670     Biso  1.000000 Mn
   O1         1.0     0.415852      0.390608      0.330068     Biso  1.000000 O
   H1         1.0     0.573062      0.505350      0.335947     Biso  1.000000 H
   H2         1.0     0.480905      0.550176      0.356126     Biso  1.000000 H
