#======================================================================

# CRYSTAL DATA

#----------------------------------------------------------------------

data_VESTA_phase_1


_chemical_name_common                  'jidi\(2)                              '
_cell_length_a                         14.76000
_cell_length_b                         14.76000
_cell_length_c                         15.00000
_cell_angle_alpha                      90
_cell_angle_beta                       90
_cell_angle_gamma                      120
_space_group_name_H-M_alt              'P 1'
_space_group_IT_number                 1

loop_
_space_group_symop_operation_xyz
   'x, y, z'

loop_
   _atom_site_label
   _atom_site_occupancy
   _atom_site_fract_x
   _atom_site_fract_y
   _atom_site_fract_z
   _atom_site_adp_type
   _atom_site_B_iso_or_equiv
   _atom_site_type_symbol
   C1         1.0     0.000068      0.998645      0.168145     Biso  1.000000 C
   C2         1.0     0.112591      0.056013      0.168121     Biso  1.000000 C
   C3         1.0     0.003434      0.166688      0.168948     Biso  1.000000 C
   C4         1.0     0.117428      0.225220      0.169181     Biso  1.000000 C
   C5         1.0     0.000693      0.332575      0.166185     Biso  1.000000 C
   C6         1.0     0.111980      0.389952      0.165191     Biso  1.000000 C
   C7         1.0     0.998689      0.499185      0.163173     Biso  1.000000 C
   C8         1.0     0.108991      0.556150      0.161220     Biso  1.000000 C
   C9         1.0     0.999230      0.665747      0.162281     Biso  1.000000 C
   C10        1.0     0.110144      0.722831      0.161006     Biso  1.000000 C
   C11        1.0    -0.000422      0.832391      0.164069     Biso  1.000000 C
   C12        1.0     0.110891      0.889166      0.163712     Biso  1.000000 C
   C13        1.0     0.167386      0.000139      0.166030     Biso  1.000000 C
   C14        1.0     0.279263      0.055908      0.166741     Biso  1.000000 C
   C15        1.0     0.172976      0.168684      0.169523     Biso  1.000000 C
   C16        1.0     0.171701      0.337988      0.167811     Biso  1.000000 C
   C17        1.0     0.163978      0.501225      0.162313     Biso  1.000000 C
   C18        1.0     0.273842      0.559597      0.162155     Biso  1.000000 C
   C19        1.0     0.164866      0.667634      0.160214     Biso  1.000000 C
   C20        1.0     0.275453      0.724539      0.160162     Biso  1.000000 C
   C21        1.0     0.166217      0.833818      0.161888     Biso  1.000000 C
   C22        1.0     0.277105      0.889775      0.162317     Biso  1.000000 C
   C23        1.0     0.334273      0.000634      0.164937     Biso  1.000000 C
   C24        1.0     0.445031      0.056178      0.166397     Biso  1.000000 C
   C25        1.0     0.335299      0.166351      0.169583     Biso  1.000000 C
   C26        1.0     0.447886      0.223446      0.170788     Biso  1.000000 C
   C27        1.0     0.328265      0.505838      0.166130     Biso  1.000000 C
   C28        1.0     0.438117      0.561945      0.169291     Biso  1.000000 C
   C29        1.0     0.330229      0.670005      0.160986     Biso  1.000000 C
   C30        1.0     0.440424      0.726008      0.163270     Biso  1.000000 C
   C31        1.0     0.332372      0.835100      0.161299     Biso  1.000000 C
   C32        1.0     0.443682      0.890847      0.163104     Biso  1.000000 C
   C33        1.0     0.500707      0.001129      0.165368     Biso  1.000000 C
   C34        1.0     0.611716      0.054861      0.167227     Biso  1.000000 C
   C35        1.0     0.501160      0.167060      0.169266     Biso  1.000000 C
   C36        1.0     0.612467      0.222655      0.169527     Biso  1.000000 C
   C37        1.0     0.611544      0.391630      0.171799     Biso  1.000000 C
   C38        1.0     0.494541      0.671522      0.167460     Biso  1.000000 C
   C39        1.0     0.498564      0.835685      0.164138     Biso  1.000000 C
   C40        1.0     0.609468      0.886974      0.167082     Biso  1.000000 C
   C41        1.0     0.666675      0.998263      0.167738     Biso  1.000000 C
   C42        1.0     0.778101      0.052663      0.169053     Biso  1.000000 C
   C43        1.0     0.667659      0.166438      0.168664     Biso  1.000000 C
   C44        1.0     0.778861      0.220820      0.168435     Biso  1.000000 C
   C45        1.0     0.667135      0.334105      0.169907     Biso  1.000000 C
   C46        1.0     0.777917      0.387863      0.168170     Biso  1.000000 C
   C47        1.0     0.776529      0.552409      0.167694     Biso  1.000000 C
   C48        1.0     0.661143      0.826258      0.170167     Biso  1.000000 C
   C49        1.0     0.773772      0.880953      0.170127     Biso  1.000000 C
   C50        1.0     0.831922      0.994911      0.169630     Biso  1.000000 C
   C51        1.0     0.944684      0.054046      0.169283     Biso  1.000000 C
   C52        1.0     0.834576      0.164426      0.168610     Biso  1.000000 C
   C53        1.0     0.946261      0.221046      0.168079     Biso  1.000000 C
   C54        1.0     0.833504      0.331962      0.167577     Biso  1.000000 C
   C55        1.0     0.944757      0.387941      0.165555     Biso  1.000000 C
   C56        1.0     0.832942      0.499009      0.166259     Biso  1.000000 C
   C57        1.0     0.943844      0.555024      0.163506     Biso  1.000000 C
   C58        1.0     0.833387      0.664966      0.165424     Biso  1.000000 C
   C59        1.0     0.943913      0.720796      0.163346     Biso  1.000000 C
   C60        1.0     0.829847      0.824820      0.168013     Biso  1.000000 C
   C61        1.0     0.942949      0.886118      0.166452     Biso  1.000000 C
   C62        1.0     0.644816      0.614340      0.310406     Biso  1.000000 C
   N1         1.0     0.281126      0.220246      0.170489     Biso  1.000000 N
   N2         1.0     0.279347      0.398144      0.168945     Biso  1.000000 N
   N3         1.0     0.502904      0.333699      0.172663     Biso  1.000000 N
   N4         1.0     0.492450      0.510722      0.176316     Biso  1.000000 N
   N5         1.0     0.601509      0.718594      0.171937     Biso  1.000000 N
   N6         1.0     0.667637      0.500160      0.172033     Biso  1.000000 N
   N7         1.0     0.778369      0.716818      0.166839     Biso  1.000000 N
   Co1        1.0     0.634806      0.611179      0.182833     Biso  1.000000 Co
   Mn1        1.0     0.393039      0.368133      0.171977     Biso  1.000000 Mn
   O1         1.0     0.553735      0.549643      0.353046     Biso  1.000000 O
   O2         1.0     0.724889      0.668491      0.351031     Biso  1.000000 O
   H1         1.0     0.502547      0.512022      0.304981     Biso  1.000000 H
