#======================================================================

# CRYSTAL DATA

#----------------------------------------------------------------------

data_VESTA_phase_1


_chemical_name_common                  'POSCAR\(16)                           '
_cell_length_a                         14.76000
_cell_length_b                         14.76000
_cell_length_c                         15.00000
_cell_angle_alpha                      90
_cell_angle_beta                       90
_cell_angle_gamma                      120
_space_group_name_H-M_alt              'P 1'
_space_group_IT_number                 1

loop_
_space_group_symop_operation_xyz
   'x, y, z'

loop_
   _atom_site_label
   _atom_site_occupancy
   _atom_site_fract_x
   _atom_site_fract_y
   _atom_site_fract_z
   _atom_site_adp_type
   _atom_site_B_iso_or_equiv
   _atom_site_type_symbol
   C1         1.0     0.001213      0.999093      0.170723     Biso  1.000000 C
   C2         1.0     0.114123      0.056829      0.169887     Biso  1.000000 C
   C3         1.0     0.004846      0.167194      0.170800     Biso  1.000000 C
   C4         1.0     0.119196      0.225763      0.172540     Biso  1.000000 C
   C5         1.0     0.002129      0.332678      0.166573     Biso  1.000000 C
   C6         1.0     0.113730      0.389890      0.165615     Biso  1.000000 C
   C7         1.0     0.999297      0.499015      0.164206     Biso  1.000000 C
   C8         1.0     0.109742      0.555881      0.160865     Biso  1.000000 C
   C9         1.0     0.999613      0.665549      0.165419     Biso  1.000000 C
   C10        1.0     0.110575      0.722626      0.161604     Biso  1.000000 C
   C11        1.0     0.000066      0.832317      0.168349     Biso  1.000000 C
   C12        1.0     0.111289      0.889080      0.165214     Biso  1.000000 C
   C13        1.0     0.168141      0.000437      0.166140     Biso  1.000000 C
   C14        1.0     0.279783      0.056455      0.163674     Biso  1.000000 C
   C15        1.0     0.175441      0.170079      0.172352     Biso  1.000000 C
   C16        1.0     0.174421      0.338273      0.170175     Biso  1.000000 C
   C17        1.0     0.165004      0.500933      0.160974     Biso  1.000000 C
   C18        1.0     0.274727      0.558827      0.158303     Biso  1.000000 C
   C19        1.0     0.165393      0.667302      0.158956     Biso  1.000000 C
   C20        1.0     0.276025      0.724053      0.156368     Biso  1.000000 C
   C21        1.0     0.166595      0.833634      0.161532     Biso  1.000000 C
   C22        1.0     0.277576      0.889727      0.159165     Biso  1.000000 C
   C23        1.0     0.334633      0.000894      0.160523     Biso  1.000000 C
   C24        1.0     0.445420      0.056602      0.160745     Biso  1.000000 C
   C25        1.0     0.335989      0.167338      0.167343     Biso  1.000000 C
   C26        1.0     0.448088      0.224601      0.167489     Biso  1.000000 C
   C27        1.0     0.329503      0.504720      0.163403     Biso  1.000000 C
   C28        1.0     0.438869      0.560490      0.165687     Biso  1.000000 C
   C29        1.0     0.330705      0.669132      0.155875     Biso  1.000000 C
   C30        1.0     0.441241      0.725206      0.157492     Biso  1.000000 C
   C31        1.0     0.332796      0.834836      0.157035     Biso  1.000000 C
   C32        1.0     0.444291      0.890723      0.157636     Biso  1.000000 C
   C33        1.0     0.501090      0.001249      0.159795     Biso  1.000000 C
   C34        1.0     0.612248      0.055007      0.162195     Biso  1.000000 C
   C35        1.0     0.501354      0.167771      0.163825     Biso  1.000000 C
   C36        1.0     0.612572      0.222914      0.165240     Biso  1.000000 C
   C37        1.0     0.609881      0.391667      0.171655     Biso  1.000000 C
   C38        1.0     0.495147      0.670516      0.161831     Biso  1.000000 C
   C39        1.0     0.499164      0.835263      0.158489     Biso  1.000000 C
   C40        1.0     0.610083      0.886712      0.162394     Biso  1.000000 C
   C41        1.0     0.667267      0.998299      0.163543     Biso  1.000000 C
   C42        1.0     0.778903      0.052875      0.166689     Biso  1.000000 C
   C43        1.0     0.668107      0.166635      0.164259     Biso  1.000000 C
   C44        1.0     0.779378      0.220832      0.165900     Biso  1.000000 C
   C45        1.0     0.666255      0.334125      0.168235     Biso  1.000000 C
   C46        1.0     0.777671      0.387617      0.168047     Biso  1.000000 C
   C47        1.0     0.776484      0.551950      0.172024     Biso  1.000000 C
   C48        1.0     0.661487      0.825722      0.166214     Biso  1.000000 C
   C49        1.0     0.774475      0.881030      0.169452     Biso  1.000000 C
   C50        1.0     0.832896      0.995175      0.169043     Biso  1.000000 C
   C51        1.0     0.945794      0.054402      0.170812     Biso  1.000000 C
   C52        1.0     0.835425      0.164599      0.166948     Biso  1.000000 C
   C53        1.0     0.947455      0.221230      0.168385     Biso  1.000000 C
   C54        1.0     0.833839      0.332000      0.166567     Biso  1.000000 C
   C55        1.0     0.945522      0.387866      0.165747     Biso  1.000000 C
   C56        1.0     0.833066      0.498701      0.169323     Biso  1.000000 C
   C57        1.0     0.944198      0.554760      0.166346     Biso  1.000000 C
   C58        1.0     0.833420      0.664303      0.171761     Biso  1.000000 C
   C59        1.0     0.944067      0.720469      0.168516     Biso  1.000000 C
   C60        1.0     0.830205      0.824876      0.171445     Biso  1.000000 C
   C61        1.0     0.943458      0.886223      0.170426     Biso  1.000000 C
   N1         1.0     0.284190      0.222639      0.173567     Biso  1.000000 N
   N2         1.0     0.282789      0.398085      0.171676     Biso  1.000000 N
   N3         1.0     0.499854      0.333920      0.173472     Biso  1.000000 N
   N4         1.0     0.491063      0.508040      0.176114     Biso  1.000000 N
   N5         1.0     0.602281      0.717724      0.166679     Biso  1.000000 N
   N6         1.0     0.666905      0.499856      0.173530     Biso  1.000000 N
   N7         1.0     0.777465      0.715831      0.173368     Biso  1.000000 N
   Co1        1.0     0.632575      0.607794      0.174044     Biso  1.000000 Co
   Mn1        1.0     0.393223      0.368655      0.210062     Biso  1.000000 Mn
   O1         1.0     0.390845      0.367017      0.315720     Biso  1.000000 O
