#======================================================================

# CRYSTAL DATA

#----------------------------------------------------------------------

data_VESTA_phase_1


_chemical_name_common                  'graphite\(2)\(0\0\-1)                 '
_cell_length_a                         14.76000
_cell_length_b                         14.76000
_cell_length_c                         15.00000
_cell_angle_alpha                      90
_cell_angle_beta                       90
_cell_angle_gamma                      120
_space_group_name_H-M_alt              'P 1'
_space_group_IT_number                 1

loop_
_space_group_symop_operation_xyz
   'x, y, z'

loop_
   _atom_site_label
   _atom_site_occupancy
   _atom_site_fract_x
   _atom_site_fract_y
   _atom_site_fract_z
   _atom_site_adp_type
   _atom_site_B_iso_or_equiv
   _atom_site_type_symbol
   C1         1.0     0.002683      0.001527      0.167720     Biso  1.000000 C
   C2         1.0     0.114548      0.056982      0.167509     Biso  1.000000 C
   C3         1.0     0.006882      0.170179      0.170074     Biso  1.000000 C
   C4         1.0     0.120381      0.226931      0.171982     Biso  1.000000 C
   C5         1.0     0.002710      0.334672      0.167392     Biso  1.000000 C
   C6         1.0     0.114566      0.391054      0.167162     Biso  1.000000 C
   C7         1.0    -0.001463      0.499921      0.165347     Biso  1.000000 C
   C8         1.0     0.109917      0.555934      0.163634     Biso  1.000000 C
   C9         1.0    -0.002501      0.665500      0.165324     Biso  1.000000 C
   C10        1.0     0.109196      0.721374      0.163160     Biso  1.000000 C
   C11        1.0    -0.001473      0.832128      0.165773     Biso  1.000000 C
   C12        1.0     0.109912      0.887506      0.164087     Biso  1.000000 C
   C13        1.0     0.166780     -0.001459      0.164539     Biso  1.000000 C
   C14        1.0     0.277693      0.052765      0.162859     Biso  1.000000 C
   C15        1.0     0.175362      0.169502      0.170788     Biso  1.000000 C
   C16        1.0     0.175331      0.339309      0.170641     Biso  1.000000 C
   C17        1.0     0.166770      0.501727      0.164172     Biso  1.000000 C
   C18        1.0     0.277692      0.558430      0.162571     Biso  1.000000 C
   C19        1.0     0.165517      0.666860      0.162173     Biso  1.000000 C
   C20        1.0     0.276886      0.722828      0.160419     Biso  1.000000 C
   C21        1.0     0.165531      0.832211      0.162434     Biso  1.000000 C
   C22        1.0     0.276881      0.887584      0.160599     Biso  1.000000 C
   C23        1.0     0.333391     -0.001954      0.160744     Biso  1.000000 C
   C24        1.0     0.444313      0.053554      0.160615     Biso  1.000000 C
   C25        1.0     0.333155      0.162627      0.165701     Biso  1.000000 C
   C26        1.0     0.444713      0.218474      0.165625     Biso  1.000000 C
   C27        1.0     0.333124      0.504001      0.165451     Biso  1.000000 C
   C28        1.0     0.444675      0.559743      0.165272     Biso  1.000000 C
   C29        1.0     0.333405      0.668852      0.160517     Biso  1.000000 C
   C30        1.0     0.444341      0.724294      0.160334     Biso  1.000000 C
   C31        1.0     0.333167      0.833349      0.159807     Biso  1.000000 C
   C32        1.0     0.444764      0.889146      0.159609     Biso  1.000000 C
   C33        1.0     0.500962     -0.000325      0.160352     Biso  1.000000 C
   C34        1.0     0.612319      0.055621      0.162095     Biso  1.000000 C
   C35        1.0     0.500087      0.163973      0.162681     Biso  1.000000 C
   C36        1.0     0.611024      0.220621      0.164346     Biso  1.000000 C
   C37        1.0     0.602505      0.383023      0.170385     Biso  1.000000 C
   C38        1.0     0.602458      0.552911      0.170264     Biso  1.000000 C
   C39        1.0     0.500072      0.669618      0.162285     Biso  1.000000 C
   C40        1.0     0.611005      0.723886      0.164045     Biso  1.000000 C
   C41        1.0     0.500988      0.834816      0.160199     Biso  1.000000 C
   C42        1.0     0.612340      0.890172      0.161887     Biso  1.000000 C
   C43        1.0     0.668603      0.001025      0.162902     Biso  1.000000 C
   C44        1.0     0.780300      0.056898      0.165428     Biso  1.000000 C
   C45        1.0     0.667961      0.166515      0.163828     Biso  1.000000 C
   C46        1.0     0.779381      0.222478      0.165636     Biso  1.000000 C
   C47        1.0     0.663251      0.331270      0.167100     Biso  1.000000 C
   C48        1.0     0.775195      0.387691      0.167121     Biso  1.000000 C
   C49        1.0     0.657422      0.495446      0.171421     Biso  1.000000 C
   C50        1.0     0.770915      0.552190      0.169419     Biso  1.000000 C
   C51        1.0     0.663192      0.665420      0.166974     Biso  1.000000 C
   C52        1.0     0.775153      0.720954      0.167294     Biso  1.000000 C
   C53        1.0     0.667983      0.834908      0.163610     Biso  1.000000 C
   C54        1.0     0.779393      0.890380      0.165617     Biso  1.000000 C
   C55        1.0     0.836563      0.002105      0.166520     Biso  1.000000 C
   C56        1.0     0.948535      0.058308      0.168538     Biso  1.000000 C
   C57        1.0     0.836585      0.167944      0.166524     Biso  1.000000 C
   C58        1.0     0.948574      0.223736      0.168453     Biso  1.000000 C
   C59        1.0     0.833081      0.333349      0.166438     Biso  1.000000 C
   C60        1.0     0.944932      0.389057      0.166430     Biso  1.000000 C
   C61        1.0     0.829245      0.498614      0.167938     Biso  1.000000 C
   C62        1.0     0.941300      0.554434      0.166242     Biso  1.000000 C
   C63        1.0     0.829244      0.664100      0.168114     Biso  1.000000 C
   C64        1.0     0.941296      0.720365      0.166450     Biso  1.000000 C
   C65        1.0     0.833081      0.833180      0.166615     Biso  1.000000 C
   C66        1.0     0.944915      0.889377      0.166771     Biso  1.000000 C
   C67        1.0     0.389938      0.363308      0.313295     Biso  1.000000 C
   N1         1.0     0.283240      0.219353      0.171437     Biso  1.000000 N
   N2         1.0     0.283264      0.397370      0.171270     Biso  1.000000 N
   N3         1.0     0.494614      0.325067      0.171236     Biso  1.000000 N
   N4         1.0     0.494539      0.502992      0.171008     Biso  1.000000 N
   Co1        1.0     0.388966      0.361289      0.194137     Biso  1.000000 Co
   O1         1.0     0.392076      0.368628      0.390717     Biso  1.000000 O
