#======================================================================

# CRYSTAL DATA

#----------------------------------------------------------------------

data_VESTA_phase_1


_chemical_name_common                  'CONTCAR\(76)                          '
_cell_length_a                         14.76000
_cell_length_b                         14.76000
_cell_length_c                         15.00000
_cell_angle_alpha                      90
_cell_angle_beta                       90
_cell_angle_gamma                      120
_space_group_name_H-M_alt              'P 1'
_space_group_IT_number                 1

loop_
_space_group_symop_operation_xyz
   'x, y, z'

loop_
   _atom_site_label
   _atom_site_occupancy
   _atom_site_fract_x
   _atom_site_fract_y
   _atom_site_fract_z
   _atom_site_adp_type
   _atom_site_B_iso_or_equiv
   _atom_site_type_symbol
   C1         1.0     0.000421      0.001917      0.168861     Biso  1.000000 C
   C2         1.0     0.112288      0.057394      0.170854     Biso  1.000000 C
   C3         1.0     0.004748      0.170659      0.168582     Biso  1.000000 C
   C4         1.0     0.118168      0.227456      0.170548     Biso  1.000000 C
   C5         1.0     0.000428      0.335148      0.166872     Biso  1.000000 C
   C6         1.0     0.112294      0.391653      0.165910     Biso  1.000000 C
   C7         1.0     0.996071      0.500455      0.165961     Biso  1.000000 C
   C8         1.0     0.107421      0.556479      0.163860     Biso  1.000000 C
   C9         1.0     0.995021      0.665954      0.166758     Biso  1.000000 C
   C10        1.0     0.106748      0.721837      0.165214     Biso  1.000000 C
   C11        1.0     0.996097      0.832505      0.168082     Biso  1.000000 C
   C12        1.0     0.107564      0.887927      0.168444     Biso  1.000000 C
   C13        1.0     0.164542      0.998853      0.170607     Biso  1.000000 C
   C14        1.0     0.275608      0.053109      0.171524     Biso  1.000000 C
   C15        1.0     0.173187      0.170005      0.172313     Biso  1.000000 C
   C16        1.0     0.173206      0.340015      0.168241     Biso  1.000000 C
   C17        1.0     0.164309      0.502411      0.163523     Biso  1.000000 C
   C18        1.0     0.275313      0.559193      0.161657     Biso  1.000000 C
   C19        1.0     0.163041      0.667425      0.163119     Biso  1.000000 C
   C20        1.0     0.274372      0.723440      0.161275     Biso  1.000000 C
   C21        1.0     0.163151      0.832641      0.166433     Biso  1.000000 C
   C22        1.0     0.274536      0.888008      0.165781     Biso  1.000000 C
   C23        1.0     0.331338      0.998325      0.168668     Biso  1.000000 C
   C24        1.0     0.442144      0.053715      0.168173     Biso  1.000000 C
   C25        1.0     0.331002      0.162721      0.173972     Biso  1.000000 C
   C26        1.0     0.442481      0.218404      0.173693     Biso  1.000000 C
   C27        1.0     0.330663      0.504956      0.163772     Biso  1.000000 C
   C28        1.0     0.442204      0.560726      0.162965     Biso  1.000000 C
   C29        1.0     0.331018      0.669765      0.160080     Biso  1.000000 C
   C30        1.0     0.441825      0.725118      0.159545     Biso  1.000000 C
   C31        1.0     0.330915      0.833927      0.162538     Biso  1.000000 C
   C32        1.0     0.442449      0.889644      0.162030     Biso  1.000000 C
   C33        1.0     0.498876      0.000117      0.164790     Biso  1.000000 C
   C34        1.0     0.610166      0.056007      0.165071     Biso  1.000000 C
   C35        1.0     0.497913      0.164238      0.170821     Biso  1.000000 C
   C36        1.0     0.608968      0.221019      0.169884     Biso  1.000000 C
   C37        1.0     0.600112      0.383493      0.172164     Biso  1.000000 C
   C38        1.0     0.599893      0.553432      0.167257     Biso  1.000000 C
   C39        1.0     0.497529      0.670265      0.160583     Biso  1.000000 C
   C40        1.0     0.608597      0.724466      0.161938     Biso  1.000000 C
   C41        1.0     0.498714      0.835445      0.160312     Biso  1.000000 C
   C42        1.0     0.610046      0.890716      0.161172     Biso  1.000000 C
   C43        1.0     0.666415      0.001480      0.163248     Biso  1.000000 C
   C44        1.0     0.778106      0.057303      0.164889     Biso  1.000000 C
   C45        1.0     0.665852      0.166944      0.167671     Biso  1.000000 C
   C46        1.0     0.777233      0.222958      0.167626     Biso  1.000000 C
   C47        1.0     0.661017      0.331790      0.170674     Biso  1.000000 C
   C48        1.0     0.772839      0.388184      0.169235     Biso  1.000000 C
   C49        1.0     0.655023      0.495953      0.170232     Biso  1.000000 C
   C50        1.0     0.768441      0.552643      0.169099     Biso  1.000000 C
   C51        1.0     0.660794      0.665944      0.164969     Biso  1.000000 C
   C52        1.0     0.772685      0.721336      0.166454     Biso  1.000000 C
   C53        1.0     0.665656      0.835412      0.161830     Biso  1.000000 C
   C54        1.0     0.777040      0.890768      0.164164     Biso  1.000000 C
   C55        1.0     0.834323      0.002505      0.165209     Biso  1.000000 C
   C56        1.0     0.946282      0.058714      0.167690     Biso  1.000000 C
   C57        1.0     0.834355      0.168350      0.166633     Biso  1.000000 C
   C58        1.0     0.946312      0.224181      0.167472     Biso  1.000000 C
   C59        1.0     0.830748      0.333840      0.168242     Biso  1.000000 C
   C60        1.0     0.942600      0.389549      0.167004     Biso  1.000000 C
   C61        1.0     0.826868      0.499143      0.168699     Biso  1.000000 C
   C62        1.0     0.938852      0.554917      0.167061     Biso  1.000000 C
   C63        1.0     0.826866      0.664580      0.167894     Biso  1.000000 C
   C64        1.0     0.938856      0.720807      0.167623     Biso  1.000000 C
   C65        1.0     0.830602      0.833534      0.166049     Biso  1.000000 C
   C66        1.0     0.942490      0.889705      0.167858     Biso  1.000000 C
   C67        1.0     0.436749      0.350066      0.373516     Biso  1.000000 C
   N1         1.0     0.281084      0.220065      0.174684     Biso  1.000000 N
   N2         1.0     0.280942      0.397971      0.168161     Biso  1.000000 N
   N3         1.0     0.492214      0.325684      0.174732     Biso  1.000000 N
   N4         1.0     0.492187      0.503659      0.166475     Biso  1.000000 N
   Co1        1.0     0.386455      0.362231      0.180342     Biso  1.000000 Co
   O1         1.0     0.392701      0.380721      0.322204     Biso  1.000000 O
   H1         1.0     0.441475      0.368379      0.445638     Biso  1.000000 H
   H2         1.0     0.472918      0.304551      0.349096     Biso  1.000000 H
