#======================================================================

# CRYSTAL DATA

#----------------------------------------------------------------------

data_VESTA_phase_1


_chemical_name_common                  'CONTCAR\(2)                           '
_cell_length_a                         14.76000
_cell_length_b                         14.76000
_cell_length_c                         15.00000
_cell_angle_alpha                      90
_cell_angle_beta                       90
_cell_angle_gamma                      120
_space_group_name_H-M_alt              'P 1'
_space_group_IT_number                 1

loop_
_space_group_symop_operation_xyz
   'x, y, z'

loop_
   _atom_site_label
   _atom_site_occupancy
   _atom_site_fract_x
   _atom_site_fract_y
   _atom_site_fract_z
   _atom_site_adp_type
   _atom_site_B_iso_or_equiv
   _atom_site_type_symbol
   C1         1.0     0.003153      0.001617      0.167758     Biso  1.000000 C
   C2         1.0     0.115064      0.057129      0.167534     Biso  1.000000 C
   C3         1.0     0.007224      0.170180      0.169999     Biso  1.000000 C
   C4         1.0     0.120890      0.226972      0.170412     Biso  1.000000 C
   C5         1.0     0.003185      0.334729      0.168631     Biso  1.000000 C
   C6         1.0     0.115045      0.391016      0.168000     Biso  1.000000 C
   C7         1.0     0.998859      0.499939      0.166781     Biso  1.000000 C
   C8         1.0     0.110310      0.555936      0.165688     Biso  1.000000 C
   C9         1.0     0.997884      0.665549      0.165405     Biso  1.000000 C
   C10        1.0     0.109601      0.721407      0.164239     Biso  1.000000 C
   C11        1.0     0.998867      0.832125      0.165458     Biso  1.000000 C
   C12        1.0     0.110331      0.887578      0.164605     Biso  1.000000 C
   C13        1.0     0.167177      0.998458      0.165325     Biso  1.000000 C
   C14        1.0     0.278040      0.052527      0.164434     Biso  1.000000 C
   C15        1.0     0.175702      0.169527      0.169497     Biso  1.000000 C
   C16        1.0     0.175507      0.339080      0.168912     Biso  1.000000 C
   C17        1.0     0.167134      0.501888      0.166069     Biso  1.000000 C
   C18        1.0     0.277902      0.558798      0.164866     Biso  1.000000 C
   C19        1.0     0.165875      0.666861      0.164177     Biso  1.000000 C
   C20        1.0     0.277166      0.722923      0.163438     Biso  1.000000 C
   C21        1.0     0.165884      0.832196      0.163612     Biso  1.000000 C
   C22        1.0     0.277203      0.887508      0.163001     Biso  1.000000 C
   C23        1.0     0.333781      0.997992      0.163181     Biso  1.000000 C
   C24        1.0     0.444754      0.053498      0.163417     Biso  1.000000 C
   C25        1.0     0.333755      0.162461      0.165784     Biso  1.000000 C
   C26        1.0     0.444912      0.218053      0.165469     Biso  1.000000 C
   C27        1.0     0.333656      0.504362      0.165173     Biso  1.000000 C
   C28        1.0     0.444959      0.559992      0.164706     Biso  1.000000 C
   C29        1.0     0.333713      0.668976      0.163628     Biso  1.000000 C
   C30        1.0     0.444809      0.724485      0.163558     Biso  1.000000 C
   C31        1.0     0.333491      0.833365      0.163011     Biso  1.000000 C
   C32        1.0     0.445128      0.889181      0.163125     Biso  1.000000 C
   C33        1.0     0.501364      0.999627      0.163597     Biso  1.000000 C
   C34        1.0     0.612710      0.055587      0.165025     Biso  1.000000 C
   C35        1.0     0.500579      0.163738      0.164452     Biso  1.000000 C
   C36        1.0     0.611470      0.220529      0.165767     Biso  1.000000 C
   C37        1.0     0.602968      0.383141      0.168153     Biso  1.000000 C
   C38        1.0     0.603147      0.552966      0.166831     Biso  1.000000 C
   C39        1.0     0.500701      0.670217      0.164189     Biso  1.000000 C
   C40        1.0     0.611498      0.724138      0.164774     Biso  1.000000 C
   C41        1.0     0.501389      0.834984      0.163602     Biso  1.000000 C
   C42        1.0     0.612707      0.890305      0.164690     Biso  1.000000 C
   C43        1.0     0.669037      0.001133      0.165673     Biso  1.000000 C
   C44        1.0     0.780776      0.056990      0.167467     Biso  1.000000 C
   C45        1.0     0.668341      0.166538      0.165990     Biso  1.000000 C
   C46        1.0     0.779811      0.222545      0.167344     Biso  1.000000 C
   C47        1.0     0.663541      0.331322      0.167016     Biso  1.000000 C
   C48        1.0     0.775496      0.387770      0.167238     Biso  1.000000 C
   C49        1.0     0.657732      0.495422      0.168203     Biso  1.000000 C
   C50        1.0     0.771440      0.552314      0.167451     Biso  1.000000 C
   C51        1.0     0.663571      0.665333      0.165716     Biso  1.000000 C
   C52        1.0     0.775480      0.720926      0.166099     Biso  1.000000 C
   C53        1.0     0.668332      0.835006      0.165103     Biso  1.000000 C
   C54        1.0     0.779820      0.890505      0.166464     Biso  1.000000 C
   C55        1.0     0.836963      0.002148      0.167793     Biso  1.000000 C
   C56        1.0     0.949035      0.058373      0.168909     Biso  1.000000 C
   C57        1.0     0.836963      0.168039      0.168242     Biso  1.000000 C
   C58        1.0     0.949071      0.223837      0.169322     Biso  1.000000 C
   C59        1.0     0.833396      0.333392      0.167549     Biso  1.000000 C
   C60        1.0     0.945258      0.389104      0.167827     Biso  1.000000 C
   C61        1.0     0.829586      0.498639      0.167289     Biso  1.000000 C
   C62        1.0     0.941752      0.554510      0.166551     Biso  1.000000 C
   C63        1.0     0.829583      0.664127      0.166468     Biso  1.000000 C
   C64        1.0     0.941732      0.720444      0.165676     Biso  1.000000 C
   C65        1.0     0.833361      0.833248      0.166381     Biso  1.000000 C
   C66        1.0     0.945253      0.889372      0.166542     Biso  1.000000 C
   C67        1.0     0.390646      0.370034      0.303213     Biso  1.000000 C
   N1         1.0     0.284151      0.219803      0.168686     Biso  1.000000 N
   N2         1.0     0.284063      0.397201      0.166273     Biso  1.000000 N
   N3         1.0     0.494530      0.324985      0.167733     Biso  1.000000 N
   N4         1.0     0.494590      0.502459      0.165158     Biso  1.000000 N
   Co1        1.0     0.389453      0.361671      0.184993     Biso  1.000000 Co
   O1         1.0     0.392270      0.446232      0.349900     Biso  1.000000 O
   H1         1.0     0.390135      0.310985      0.348989     Biso  1.000000 H
   H2         1.0     0.392699      0.499406      0.308917     Biso  1.000000 H
