#======================================================================

# CRYSTAL DATA

#----------------------------------------------------------------------

data_VESTA_phase_1


_chemical_name_common                  'graphite\(2)\(0\0\-1)                 '
_cell_length_a                         14.76000
_cell_length_b                         14.76000
_cell_length_c                         15.00000
_cell_angle_alpha                      90
_cell_angle_beta                       90
_cell_angle_gamma                      120
_space_group_name_H-M_alt              'P 1'
_space_group_IT_number                 1

loop_
_space_group_symop_operation_xyz
   'x, y, z'

loop_
   _atom_site_label
   _atom_site_occupancy
   _atom_site_fract_x
   _atom_site_fract_y
   _atom_site_fract_z
   _atom_site_adp_type
   _atom_site_B_iso_or_equiv
   _atom_site_type_symbol
   C1         1.0     0.003060      0.001850      0.166562     Biso  1.000000 C
   C2         1.0     0.114984      0.057408      0.166294     Biso  1.000000 C
   C3         1.0     0.007373      0.170493      0.167552     Biso  1.000000 C
   C4         1.0     0.120837      0.227227      0.167423     Biso  1.000000 C
   C5         1.0     0.003040      0.334883      0.166443     Biso  1.000000 C
   C6         1.0     0.114935      0.391280      0.165892     Biso  1.000000 C
   C7         1.0    -0.001291      0.500088      0.166324     Biso  1.000000 C
   C8         1.0     0.110127      0.556121      0.166444     Biso  1.000000 C
   C9         1.0    -0.002349      0.665650      0.166733     Biso  1.000000 C
   C10        1.0     0.109395      0.721538      0.167129     Biso  1.000000 C
   C11        1.0    -0.001281      0.832285      0.166310     Biso  1.000000 C
   C12        1.0     0.110151      0.887739      0.166671     Biso  1.000000 C
   C13        1.0     0.167080     -0.001224      0.166303     Biso  1.000000 C
   C14        1.0     0.278046      0.053005      0.166187     Biso  1.000000 C
   C15        1.0     0.175951      0.169946      0.166715     Biso  1.000000 C
   C16        1.0     0.175883      0.339681      0.166163     Biso  1.000000 C
   C17        1.0     0.167071      0.502014      0.165806     Biso  1.000000 C
   C18        1.0     0.278022      0.558680      0.165679     Biso  1.000000 C
   C19        1.0     0.165745      0.667009      0.167102     Biso  1.000000 C
   C20        1.0     0.277112      0.722977      0.167281     Biso  1.000000 C
   C21        1.0     0.165751      0.832435      0.167225     Biso  1.000000 C
   C22        1.0     0.277099      0.887794      0.167409     Biso  1.000000 C
   C23        1.0     0.333743     -0.001844      0.166853     Biso  1.000000 C
   C24        1.0     0.444600      0.053530      0.166780     Biso  1.000000 C
   C25        1.0     0.333399      0.162691      0.165628     Biso  1.000000 C
   C26        1.0     0.444943      0.218367      0.165150     Biso  1.000000 C
   C27        1.0     0.333339      0.504283      0.164737     Biso  1.000000 C
   C28        1.0     0.444927      0.560142      0.164212     Biso  1.000000 C
   C29        1.0     0.333735      0.669238      0.166531     Biso  1.000000 C
   C30        1.0     0.444585      0.724654      0.166307     Biso  1.000000 C
   C31        1.0     0.333383      0.833502      0.167563     Biso  1.000000 C
   C32        1.0     0.444879      0.889230      0.167632     Biso  1.000000 C
   C33        1.0     0.501174     -0.000239      0.167441     Biso  1.000000 C
   C34        1.0     0.612556      0.055718      0.167332     Biso  1.000000 C
   C35        1.0     0.500342      0.164020      0.165783     Biso  1.000000 C
   C36        1.0     0.611277      0.220689      0.165682     Biso  1.000000 C
   C37        1.0     0.602425      0.383032      0.164802     Biso  1.000000 C
   C38        1.0     0.602514      0.553105      0.163936     Biso  1.000000 C
   C39        1.0     0.500301      0.669877      0.164914     Biso  1.000000 C
   C40        1.0     0.611229      0.724138      0.164739     Biso  1.000000 C
   C41        1.0     0.501169      0.834979      0.167167     Biso  1.000000 C
   C42        1.0     0.612561      0.890411      0.167028     Biso  1.000000 C
   C43        1.0     0.668914      0.001237      0.167506     Biso  1.000000 C
   C44        1.0     0.780632      0.057103      0.167513     Biso  1.000000 C
   C45        1.0     0.668208      0.166614      0.166608     Biso  1.000000 C
   C46        1.0     0.779663      0.222599      0.166654     Biso  1.000000 C
   C47        1.0     0.663312      0.331426      0.164988     Biso  1.000000 C
   C48        1.0     0.775268      0.387813      0.165522     Biso  1.000000 C
   C49        1.0     0.657379      0.495494      0.165137     Biso  1.000000 C
   C50        1.0     0.770917      0.552250      0.165548     Biso  1.000000 C
   C51        1.0     0.663380      0.665542      0.164123     Biso  1.000000 C
   C52        1.0     0.775324      0.721066      0.165105     Biso  1.000000 C
   C53        1.0     0.668166      0.835137      0.165981     Biso  1.000000 C
   C54        1.0     0.779609      0.890585      0.166353     Biso  1.000000 C
   C55        1.0     0.836885      0.002290      0.167247     Biso  1.000000 C
   C56        1.0     0.948892      0.058532      0.167294     Biso  1.000000 C
   C57        1.0     0.836930      0.168174      0.167299     Biso  1.000000 C
   C58        1.0     0.948921      0.223991      0.167207     Biso  1.000000 C
   C59        1.0     0.833256      0.333470      0.166040     Biso  1.000000 C
   C60        1.0     0.945122      0.389201      0.166200     Biso  1.000000 C
   C61        1.0     0.829332      0.498706      0.165862     Biso  1.000000 C
   C62        1.0     0.941433      0.554548      0.166418     Biso  1.000000 C
   C63        1.0     0.829352      0.664233      0.165602     Biso  1.000000 C
   C64        1.0     0.941436      0.720519      0.166321     Biso  1.000000 C
   C65        1.0     0.833248      0.833332      0.165851     Biso  1.000000 C
   C66        1.0     0.945126      0.889558      0.166166     Biso  1.000000 C
   C67        1.0     0.479436      0.395885      0.348065     Biso  1.000000 C
   N1         1.0     0.284025      0.220180      0.165474     Biso  1.000000 N
   N2         1.0     0.283835      0.397497      0.164243     Biso  1.000000 N
   N3         1.0     0.494411      0.325232      0.164208     Biso  1.000000 N
   N4         1.0     0.494502      0.502900      0.163087     Biso  1.000000 N
   Co1        1.0     0.389560      0.361720      0.176439     Biso  1.000000 Co
   O1         1.0     0.386184      0.365962      0.301736     Biso  1.000000 O
   H1         1.0     0.463945      0.405172      0.418767     Biso  1.000000 H
   H2         1.0     0.505061      0.336888      0.345416     Biso  1.000000 H
   H3         1.0     0.545923      0.471993      0.326052     Biso  1.000000 H
