#======================================================================

# CRYSTAL DATA

#----------------------------------------------------------------------

data_VESTA_phase_1


_chemical_name_common                  'CONTCAR\(2)                           '
_cell_length_a                         14.76000
_cell_length_b                         14.76000
_cell_length_c                         15.00000
_cell_angle_alpha                      90
_cell_angle_beta                       90
_cell_angle_gamma                      120
_space_group_name_H-M_alt              'P 1'
_space_group_IT_number                 1

loop_
_space_group_symop_operation_xyz
   'x, y, z'

loop_
   _atom_site_label
   _atom_site_occupancy
   _atom_site_fract_x
   _atom_site_fract_y
   _atom_site_fract_z
   _atom_site_adp_type
   _atom_site_B_iso_or_equiv
   _atom_site_type_symbol
   C1         1.0     0.003172      0.002007      0.164273     Biso  1.000000 C
   C2         1.0     0.115012      0.057461      0.164660     Biso  1.000000 C
   C3         1.0     0.007405      0.170684      0.165547     Biso  1.000000 C
   C4         1.0     0.120741      0.227353      0.165908     Biso  1.000000 C
   C5         1.0     0.003124      0.335102      0.165363     Biso  1.000000 C
   C6         1.0     0.114923      0.391479      0.165139     Biso  1.000000 C
   C7         1.0     0.998912      0.500343      0.165021     Biso  1.000000 C
   C8         1.0     0.110296      0.556385      0.164948     Biso  1.000000 C
   C9         1.0     0.998105      0.666031      0.165414     Biso  1.000000 C
   C10        1.0     0.109750      0.721886      0.166200     Biso  1.000000 C
   C11        1.0     0.999076      0.832596      0.164717     Biso  1.000000 C
   C12        1.0     0.110393      0.887983      0.165805     Biso  1.000000 C
   C13        1.0     0.167221      0.998959      0.165425     Biso  1.000000 C
   C14        1.0     0.278221      0.053130      0.166277     Biso  1.000000 C
   C15        1.0     0.175866      0.169953      0.165144     Biso  1.000000 C
   C16        1.0     0.175806      0.339796      0.166016     Biso  1.000000 C
   C17        1.0     0.167101      0.502277      0.164700     Biso  1.000000 C
   C18        1.0     0.278083      0.559099      0.164381     Biso  1.000000 C
   C19        1.0     0.165992      0.667313      0.165676     Biso  1.000000 C
   C20        1.0     0.277233      0.723280      0.165733     Biso  1.000000 C
   C21        1.0     0.166054      0.832713      0.166829     Biso  1.000000 C
   C22        1.0     0.277337      0.888012      0.167679     Biso  1.000000 C
   C23        1.0     0.333987      0.998332      0.167752     Biso  1.000000 C
   C24        1.0     0.444731      0.053684      0.168013     Biso  1.000000 C
   C25        1.0     0.333500      0.162657      0.165736     Biso  1.000000 C
   C26        1.0     0.445142      0.218444      0.166286     Biso  1.000000 C
   C27        1.0     0.333479      0.504834      0.165009     Biso  1.000000 C
   C28        1.0     0.444777      0.560891      0.164099     Biso  1.000000 C
   C29        1.0     0.333882      0.669620      0.164289     Biso  1.000000 C
   C30        1.0     0.444679      0.725085      0.163488     Biso  1.000000 C
   C31        1.0     0.333572      0.833742      0.167107     Biso  1.000000 C
   C32        1.0     0.445081      0.889544      0.167019     Biso  1.000000 C
   C33        1.0     0.501375      0.000017      0.168105     Biso  1.000000 C
   C34        1.0     0.612714      0.055961      0.167651     Biso  1.000000 C
   C35        1.0     0.500512      0.164240      0.167080     Biso  1.000000 C
   C36        1.0     0.611543      0.221002      0.166897     Biso  1.000000 C
   C37        1.0     0.602759      0.383363      0.165485     Biso  1.000000 C
   C38        1.0     0.603716      0.553850      0.163180     Biso  1.000000 C
   C39        1.0     0.500418      0.670297      0.162425     Biso  1.000000 C
   C40        1.0     0.611584      0.724567      0.162157     Biso  1.000000 C
   C41        1.0     0.501410      0.835377      0.164942     Biso  1.000000 C
   C42        1.0     0.612715      0.890703      0.164853     Biso  1.000000 C
   C43        1.0     0.669022      0.001479      0.166363     Biso  1.000000 C
   C44        1.0     0.780702      0.057323      0.165896     Biso  1.000000 C
   C45        1.0     0.668392      0.166890      0.167443     Biso  1.000000 C
   C46        1.0     0.779764      0.222858      0.166659     Biso  1.000000 C
   C47        1.0     0.663695      0.331739      0.165706     Biso  1.000000 C
   C48        1.0     0.775592      0.388139      0.165470     Biso  1.000000 C
   C49        1.0     0.658110      0.496086      0.164461     Biso  1.000000 C
   C50        1.0     0.771620      0.552810      0.164263     Biso  1.000000 C
   C51        1.0     0.664134      0.666227      0.161829     Biso  1.000000 C
   C52        1.0     0.775917      0.721590      0.162503     Biso  1.000000 C
   C53        1.0     0.668365      0.835379      0.163226     Biso  1.000000 C
   C54        1.0     0.779855      0.890837      0.163518     Biso  1.000000 C
   C55        1.0     0.837014      0.002548      0.164677     Biso  1.000000 C
   C56        1.0     0.948950      0.058736      0.164720     Biso  1.000000 C
   C57        1.0     0.837006      0.168354      0.166299     Biso  1.000000 C
   C58        1.0     0.948945      0.224138      0.165797     Biso  1.000000 C
   C59        1.0     0.833392      0.333728      0.165876     Biso  1.000000 C
   C60        1.0     0.945265      0.389483      0.165325     Biso  1.000000 C
   C61        1.0     0.829808      0.499151      0.164895     Biso  1.000000 C
   C62        1.0     0.941795      0.554916      0.165163     Biso  1.000000 C
   C63        1.0     0.829982      0.664686      0.163689     Biso  1.000000 C
   C64        1.0     0.941972      0.720905      0.164757     Biso  1.000000 C
   C65        1.0     0.833615      0.833759      0.163120     Biso  1.000000 C
   C66        1.0     0.945443      0.889868      0.163961     Biso  1.000000 C
   C67        1.0     0.434512      0.401256      0.377659     Biso  1.000000 C
   N1         1.0     0.283532      0.219691      0.164986     Biso  1.000000 N
   N2         1.0     0.283639      0.397649      0.166565     Biso  1.000000 N
   N3         1.0     0.494960      0.325562      0.166321     Biso  1.000000 N
   N4         1.0     0.495018      0.503344      0.167102     Biso  1.000000 N
   Co1        1.0     0.388729      0.361003      0.174306     Biso  1.000000 Co
   O1         1.0     0.373400      0.338568      0.322834     Biso  1.000000 O
   O2         1.0     0.517119      0.493767      0.359012     Biso  1.000000 O
   H1         1.0     0.426143      0.385986      0.450068     Biso  1.000000 H
   H2         1.0     0.519504      0.503055      0.293010     Biso  1.000000 H
