#======================================================================

# CRYSTAL DATA

#----------------------------------------------------------------------

data_VESTA_phase_1


_chemical_name_common                  'contcar\(2)                           '
_cell_length_a                         14.76000
_cell_length_b                         14.76000
_cell_length_c                         15.00000
_cell_angle_alpha                      90
_cell_angle_beta                       90
_cell_angle_gamma                      120
_space_group_name_H-M_alt              'P 1'
_space_group_IT_number                 1

loop_
_space_group_symop_operation_xyz
   'x, y, z'

loop_
   _atom_site_label
   _atom_site_occupancy
   _atom_site_fract_x
   _atom_site_fract_y
   _atom_site_fract_z
   _atom_site_adp_type
   _atom_site_B_iso_or_equiv
   _atom_site_type_symbol
   C1         1.0     0.002565      0.001692      0.162196     Biso  1.000000 C
   C2         1.0     0.114418      0.057180      0.162677     Biso  1.000000 C
   C3         1.0     0.006859      0.170434      0.161576     Biso  1.000000 C
   C4         1.0     0.120287      0.227161      0.160946     Biso  1.000000 C
   C5         1.0     0.002602      0.334912      0.161311     Biso  1.000000 C
   C6         1.0     0.114476      0.391295      0.160414     Biso  1.000000 C
   C7         1.0     0.998457      0.500184      0.162624     Biso  1.000000 C
   C8         1.0     0.109849      0.556181      0.163241     Biso  1.000000 C
   C9         1.0     0.997580      0.665815      0.164026     Biso  1.000000 C
   C10        1.0     0.109223      0.721608      0.166268     Biso  1.000000 C
   C11        1.0     0.998487      0.832319      0.163622     Biso  1.000000 C
   C12        1.0     0.109850      0.887709      0.165699     Biso  1.000000 C
   C13        1.0     0.166659      0.998650      0.165030     Biso  1.000000 C
   C14        1.0     0.277705      0.052855      0.166745     Biso  1.000000 C
   C15        1.0     0.175278      0.169722      0.161810     Biso  1.000000 C
   C16        1.0     0.175422      0.339665      0.159871     Biso  1.000000 C
   C17        1.0     0.166652      0.502061      0.161526     Biso  1.000000 C
   C18        1.0     0.277662      0.558897      0.161648     Biso  1.000000 C
   C19        1.0     0.165519      0.667111      0.165797     Biso  1.000000 C
   C20        1.0     0.276783      0.723072      0.167182     Biso  1.000000 C
   C21        1.0     0.165522      0.832439      0.167750     Biso  1.000000 C
   C22        1.0     0.276780      0.887736      0.169779     Biso  1.000000 C
   C23        1.0     0.333453      0.998090      0.169430     Biso  1.000000 C
   C24        1.0     0.444254      0.053469      0.169391     Biso  1.000000 C
   C25        1.0     0.333106      0.162397      0.164875     Biso  1.000000 C
   C26        1.0     0.444667      0.218189      0.164795     Biso  1.000000 C
   C27        1.0     0.332996      0.504692      0.159657     Biso  1.000000 C
   C28        1.0     0.444551      0.560502      0.159475     Biso  1.000000 C
   C29        1.0     0.333440      0.669445      0.164644     Biso  1.000000 C
   C30        1.0     0.444213      0.724784      0.164928     Biso  1.000000 C
   C31        1.0     0.333108      0.833533      0.169786     Biso  1.000000 C
   C32        1.0     0.444589      0.889247      0.169916     Biso  1.000000 C
   C33        1.0     0.500917      0.999802      0.169881     Biso  1.000000 C
   C34        1.0     0.612207      0.055774      0.168089     Biso  1.000000 C
   C35        1.0     0.500052      0.163990      0.166840     Biso  1.000000 C
   C36        1.0     0.611094      0.220827      0.165359     Biso  1.000000 C
   C37        1.0     0.602390      0.383260      0.161423     Biso  1.000000 C
   C38        1.0     0.602307      0.553196      0.159198     Biso  1.000000 C
   C39        1.0     0.499957      0.670007      0.161790     Biso  1.000000 C
   C40        1.0     0.611014      0.724230      0.161873     Biso  1.000000 C
   C41        1.0     0.500907      0.835057      0.167709     Biso  1.000000 C
   C42        1.0     0.612229      0.890472      0.166495     Biso  1.000000 C
   C43        1.0     0.668496      0.001243      0.166798     Biso  1.000000 C
   C44        1.0     0.780171      0.057102      0.164524     Biso  1.000000 C
   C45        1.0     0.667871      0.166725      0.166153     Biso  1.000000 C
   C46        1.0     0.779273      0.222772      0.164172     Biso  1.000000 C
   C47        1.0     0.663298      0.331608      0.162774     Biso  1.000000 C
   C48        1.0     0.775179      0.388080      0.162388     Biso  1.000000 C
   C49        1.0     0.657417      0.495786      0.160500     Biso  1.000000 C
   C50        1.0     0.770893      0.552524      0.161293     Biso  1.000000 C
   C51        1.0     0.663248      0.665717      0.160365     Biso  1.000000 C
   C52        1.0     0.775148      0.721176      0.161297     Biso  1.000000 C
   C53        1.0     0.667880      0.835156      0.163853     Biso  1.000000 C
   C54        1.0     0.779287      0.890550      0.163071     Biso  1.000000 C
   C55        1.0     0.836417      0.002293      0.163228     Biso  1.000000 C
   C56        1.0     0.948416      0.058513      0.162070     Biso  1.000000 C
   C57        1.0     0.836424      0.168186      0.163520     Biso  1.000000 C
   C58        1.0     0.948405      0.223948      0.161868     Biso  1.000000 C
   C59        1.0     0.832933      0.333637      0.162891     Biso  1.000000 C
   C60        1.0     0.944801      0.389292      0.162130     Biso  1.000000 C
   C61        1.0     0.829334      0.499060      0.161966     Biso  1.000000 C
   C62        1.0     0.941348      0.554796      0.162895     Biso  1.000000 C
   C63        1.0     0.829346      0.664415      0.161601     Biso  1.000000 C
   C64        1.0     0.941345      0.720618      0.163135     Biso  1.000000 C
   C65        1.0     0.832926      0.833341      0.162154     Biso  1.000000 C
   C66        1.0     0.944795      0.889480      0.162499     Biso  1.000000 C
   C67        1.0     0.485421      0.441081      0.356446     Biso  1.000000 C
   N1         1.0     0.283247      0.219806      0.162386     Biso  1.000000 N
   N2         1.0     0.283206      0.397572      0.158799     Biso  1.000000 N
   N3         1.0     0.494460      0.325416      0.161742     Biso  1.000000 N
   N4         1.0     0.494452      0.503199      0.158188     Biso  1.000000 N
   Co1        1.0     0.388814      0.361665      0.165522     Biso  1.000000 Co
   O1         1.0     0.389043      0.362201      0.316066     Biso  1.000000 O
   H1         1.0     0.482174      0.430994      0.429270     Biso  1.000000 H
   H2         1.0     0.553265      0.438596      0.328864     Biso  1.000000 H
   H3         1.0     0.492410      0.516654      0.340065     Biso  1.000000 H
   H4         1.0     0.379679      0.293685      0.330489     Biso  1.000000 H
