#======================================================================

# CRYSTAL DATA

#----------------------------------------------------------------------

data_VESTA_phase_1


_chemical_name_common                  'CONTCAR\(29)                          '
_cell_length_a                         14.76000
_cell_length_b                         14.76000
_cell_length_c                         15.00000
_cell_angle_alpha                      90
_cell_angle_beta                       90
_cell_angle_gamma                      120
_space_group_name_H-M_alt              'P 1'
_space_group_IT_number                 1

loop_
_space_group_symop_operation_xyz
   'x, y, z'

loop_
   _atom_site_label
   _atom_site_occupancy
   _atom_site_fract_x
   _atom_site_fract_y
   _atom_site_fract_z
   _atom_site_adp_type
   _atom_site_B_iso_or_equiv
   _atom_site_type_symbol
   C1         1.0     0.005835      0.003135      0.173039     Biso  1.000000 C
   C2         1.0     0.117632      0.058443      0.172274     Biso  1.000000 C
   C3         1.0     0.009856      0.171853      0.176577     Biso  1.000000 C
   C4         1.0     0.123854      0.228918      0.178443     Biso  1.000000 C
   C5         1.0     0.005863      0.336490      0.172952     Biso  1.000000 C
   C6         1.0     0.117669      0.393099      0.172095     Biso  1.000000 C
   C7         1.0     0.001329      0.501480      0.169042     Biso  1.000000 C
   C8         1.0     0.112708      0.557601      0.166208     Biso  1.000000 C
   C9         1.0     0.000233      0.666984      0.167638     Biso  1.000000 C
   C10        1.0     0.111912      0.722882      0.164026     Biso  1.000000 C
   C11        1.0     0.001272      0.833594      0.169391     Biso  1.000000 C
   C12        1.0     0.112658      0.888959      0.166658     Biso  1.000000 C
   C13        1.0     0.169783     -0.000022      0.168014     Biso  1.000000 C
   C14        1.0     0.280770      0.054345      0.165429     Biso  1.000000 C
   C15        1.0     0.178746      0.171056      0.174968     Biso  1.000000 C
   C16        1.0     0.178800      0.341668      0.174890     Biso  1.000000 C
   C17        1.0     0.169832      0.503737      0.167590     Biso  1.000000 C
   C18        1.0     0.280828      0.560430      0.165050     Biso  1.000000 C
   C19        1.0     0.168269      0.668430      0.162731     Biso  1.000000 C
   C20        1.0     0.279604      0.724423      0.159909     Biso  1.000000 C
   C21        1.0     0.168242      0.833709      0.163019     Biso  1.000000 C
   C22        1.0     0.279551      0.889135      0.160213     Biso  1.000000 C
   C23        1.0     0.336412      0.999519      0.161284     Biso  1.000000 C
   C24        1.0     0.447242      0.054993      0.160995     Biso  1.000000 C
   C25        1.0     0.336338      0.163882      0.168801     Biso  1.000000 C
   C26        1.0     0.447731      0.219838      0.168707     Biso  1.000000 C
   C27        1.0     0.336382      0.506425      0.168607     Biso  1.000000 C
   C28        1.0     0.447752      0.561871      0.168538     Biso  1.000000 C
   C29        1.0     0.336470      0.670913      0.160892     Biso  1.000000 C
   C30        1.0     0.447280      0.726274      0.160630     Biso  1.000000 C
   C31        1.0     0.335962      0.834981      0.158559     Biso  1.000000 C
   C32        1.0     0.447570      0.890774      0.158467     Biso  1.000000 C
   C33        1.0     0.504023      0.001353      0.159930     Biso  1.000000 C
   C34        1.0     0.615400      0.057313      0.162831     Biso  1.000000 C
   C35        1.0     0.503014      0.165505      0.164664     Biso  1.000000 C
   C36        1.0     0.613972      0.222205      0.166819     Biso  1.000000 C
   C37        1.0     0.605018      0.384531      0.173748     Biso  1.000000 C
   C38        1.0     0.605061      0.554413      0.173720     Biso  1.000000 C
   C39        1.0     0.503009      0.671480      0.164336     Biso  1.000000 C
   C40        1.0     0.613945      0.725650      0.166648     Biso  1.000000 C
   C41        1.0     0.504049      0.836671      0.159704     Biso  1.000000 C
   C42        1.0     0.615411      0.892033      0.162623     Biso  1.000000 C
   C43        1.0     0.671792      0.002859      0.164313     Biso  1.000000 C
   C44        1.0     0.783483      0.058663      0.168936     Biso  1.000000 C
   C45        1.0     0.671026      0.168209      0.166006     Biso  1.000000 C
   C46        1.0     0.782358      0.224147      0.169312     Biso  1.000000 C
   C47        1.0     0.666018      0.332888      0.170400     Biso  1.000000 C
   C48        1.0     0.777907      0.389249      0.171001     Biso  1.000000 C
   C49        1.0     0.660161      0.497004      0.174884     Biso  1.000000 C
   C50        1.0     0.773624      0.553690      0.172888     Biso  1.000000 C
   C51        1.0     0.666028      0.667022      0.170432     Biso  1.000000 C
   C52        1.0     0.777897      0.722462      0.171035     Biso  1.000000 C
   C53        1.0     0.671001      0.836710      0.165869     Biso  1.000000 C
   C54        1.0     0.782320      0.892044      0.169352     Biso  1.000000 C
   C55        1.0     0.839666      0.003796      0.170959     Biso  1.000000 C
   C56        1.0     0.951675      0.060069      0.174252     Biso  1.000000 C
   C57        1.0     0.839662      0.169684      0.170972     Biso  1.000000 C
   C58        1.0     0.951645      0.225398      0.174308     Biso  1.000000 C
   C59        1.0     0.835866      0.334967      0.170777     Biso  1.000000 C
   C60        1.0     0.947784      0.390630      0.171192     Biso  1.000000 C
   C61        1.0     0.832052      0.500218      0.171578     Biso  1.000000 C
   C62        1.0     0.944041      0.555953      0.169366     Biso  1.000000 C
   C63        1.0     0.832031      0.665610      0.171614     Biso  1.000000 C
   C64        1.0     0.944032      0.721844      0.169525     Biso  1.000000 C
   C65        1.0     0.835820      0.834699      0.170911     Biso  1.000000 C
   C66        1.0     0.947735      0.890904      0.171451     Biso  1.000000 C
   C67        1.0     0.377536      0.355755      0.311717     Biso  1.000000 C
   N1         1.0     0.286401      0.220933      0.173881     Biso  1.000000 N
   N2         1.0     0.286426      0.399452      0.173865     Biso  1.000000 N
   N3         1.0     0.497392      0.326584      0.174760     Biso  1.000000 N
   N4         1.0     0.497424      0.504791      0.174668     Biso  1.000000 N
   Co1        1.0     0.390459      0.362226      0.190341     Biso  1.000000 Co
   O1         1.0     0.287015      0.309893      0.351051     Biso  1.000000 O
   H1         1.0     0.223074      0.277233      0.312408     Biso  1.000000 H
