#======================================================================

# CRYSTAL DATA

#----------------------------------------------------------------------

data_VESTA_phase_1


_chemical_name_common                  'POSCAR\(3)\(4)                        '
_cell_length_a                         14.76000
_cell_length_b                         14.76000
_cell_length_c                         15.00000
_cell_angle_alpha                      90
_cell_angle_beta                       90
_cell_angle_gamma                      120
_space_group_name_H-M_alt              'P 1'
_space_group_IT_number                 1

loop_
_space_group_symop_operation_xyz
   'x, y, z'

loop_
   _atom_site_label
   _atom_site_occupancy
   _atom_site_fract_x
   _atom_site_fract_y
   _atom_site_fract_z
   _atom_site_adp_type
   _atom_site_B_iso_or_equiv
   _atom_site_type_symbol
   C1         1.0     0.002842      0.001097      0.166880     Biso  1.000000 C
   C2         1.0     0.114749      0.056653      0.165952     Biso  1.000000 C
   C3         1.0     0.007171      0.169800      0.168858     Biso  1.000000 C
   C4         1.0     0.120614      0.226546      0.169270     Biso  1.000000 C
   C5         1.0     0.002840      0.334228      0.168902     Biso  1.000000 C
   C6         1.0     0.114723      0.390591      0.169085     Biso  1.000000 C
   C7         1.0     0.998575      0.499494      0.168281     Biso  1.000000 C
   C8         1.0     0.109999      0.555488      0.168505     Biso  1.000000 C
   C9         1.0     0.997534      0.665034      0.166717     Biso  1.000000 C
   C10        1.0     0.109276      0.720909      0.166204     Biso  1.000000 C
   C11        1.0     0.998546      0.831603      0.165703     Biso  1.000000 C
   C12        1.0     0.109979      0.887023      0.164459     Biso  1.000000 C
   C13        1.0     0.166869      0.998062      0.164350     Biso  1.000000 C
   C14        1.0     0.277797      0.052361      0.163988     Biso  1.000000 C
   C15        1.0     0.175645      0.169173      0.167546     Biso  1.000000 C
   C16        1.0     0.175628      0.338964      0.169265     Biso  1.000000 C
   C17        1.0     0.166834      0.501312      0.169063     Biso  1.000000 C
   C18        1.0     0.277752      0.557977      0.169149     Biso  1.000000 C
   C19        1.0     0.165622      0.666385      0.167432     Biso  1.000000 C
   C20        1.0     0.276956      0.722371      0.167378     Biso  1.000000 C
   C21        1.0     0.165605      0.831767      0.164641     Biso  1.000000 C
   C22        1.0     0.276959      0.887192      0.164226     Biso  1.000000 C
   C23        1.0     0.333540      0.997576      0.163517     Biso  1.000000 C
   C24        1.0     0.444381      0.053008      0.163697     Biso  1.000000 C
   C25        1.0     0.333150      0.162079      0.165264     Biso  1.000000 C
   C26        1.0     0.444721      0.217886      0.165192     Biso  1.000000 C
   C27        1.0     0.333097      0.503586      0.168920     Biso  1.000000 C
   C28        1.0     0.444648      0.559443      0.168913     Biso  1.000000 C
   C29        1.0     0.333491      0.668537      0.168756     Biso  1.000000 C
   C30        1.0     0.444365      0.724003      0.168631     Biso  1.000000 C
   C31        1.0     0.333246      0.832952      0.165608     Biso  1.000000 C
   C32        1.0     0.444710      0.888668      0.165605     Biso  1.000000 C
   C33        1.0     0.500999      0.999220      0.164456     Biso  1.000000 C
   C34        1.0     0.612386      0.055184      0.165326     Biso  1.000000 C
   C35        1.0     0.500113      0.163517      0.164235     Biso  1.000000 C
   C36        1.0     0.611047      0.220134      0.164819     Biso  1.000000 C
   C37        1.0     0.602270      0.382408      0.166910     Biso  1.000000 C
   C38        1.0     0.602337      0.552345      0.168585     Biso  1.000000 C
   C39        1.0     0.500109      0.669199      0.169003     Biso  1.000000 C
   C40        1.0     0.611056      0.723468      0.168570     Biso  1.000000 C
   C41        1.0     0.500948      0.834353      0.167318     Biso  1.000000 C
   C42        1.0     0.612322      0.889751      0.167495     Biso  1.000000 C
   C43        1.0     0.668686      0.000628      0.166722     Biso  1.000000 C
   C44        1.0     0.780417      0.056469      0.167569     Biso  1.000000 C
   C45        1.0     0.668032      0.166096      0.165278     Biso  1.000000 C
   C46        1.0     0.779478      0.222068      0.166764     Biso  1.000000 C
   C47        1.0     0.663147      0.330815      0.165875     Biso  1.000000 C
   C48        1.0     0.775108      0.387253      0.166806     Biso  1.000000 C
   C49        1.0     0.657291      0.494856      0.168252     Biso  1.000000 C
   C50        1.0     0.770805      0.551646      0.167788     Biso  1.000000 C
   C51        1.0     0.663194      0.664869      0.168297     Biso  1.000000 C
   C52        1.0     0.775132      0.720418      0.167734     Biso  1.000000 C
   C53        1.0     0.667943      0.834467      0.168324     Biso  1.000000 C
   C54        1.0     0.779404      0.889945      0.168167     Biso  1.000000 C
   C55        1.0     0.836685      0.001641      0.168148     Biso  1.000000 C
   C56        1.0     0.948698      0.057838      0.168103     Biso  1.000000 C
   C57        1.0     0.836714      0.167568      0.167731     Biso  1.000000 C
   C58        1.0     0.948752      0.223358      0.168706     Biso  1.000000 C
   C59        1.0     0.833111      0.332995      0.167361     Biso  1.000000 C
   C60        1.0     0.944936      0.388614      0.168410     Biso  1.000000 C
   C61        1.0     0.829236      0.498126      0.167378     Biso  1.000000 C
   C62        1.0     0.941322      0.553956      0.167477     Biso  1.000000 C
   C63        1.0     0.829193      0.663601      0.167422     Biso  1.000000 C
   C64        1.0     0.941291      0.719888      0.166547     Biso  1.000000 C
   C65        1.0     0.833069      0.832721      0.167661     Biso  1.000000 C
   C66        1.0     0.944923      0.888868      0.166654     Biso  1.000000 C
   N1         1.0     0.283666      0.219417      0.166447     Biso  1.000000 N
   N2         1.0     0.283673      0.396784      0.167988     Biso  1.000000 N
   N3         1.0     0.494193      0.324687      0.165816     Biso  1.000000 N
   N4         1.0     0.494151      0.502046      0.167980     Biso  1.000000 N
   Co1        1.0     0.389030      0.360734      0.178727     Biso  1.000000 Co
   H1         1.0     0.460112      0.411556      0.321867     Biso  1.000000 H
   O1         1.0     0.389300      0.359768      0.303539     Biso  1.000000 O
