#======================================================================

# CRYSTAL DATA

#----------------------------------------------------------------------

data_VESTA_phase_1


_chemical_name_common                  'CONTCAR\(2)                           '
_cell_length_a                         14.76000
_cell_length_b                         14.76000
_cell_length_c                         15.00000
_cell_angle_alpha                      90
_cell_angle_beta                       90
_cell_angle_gamma                      120
_space_group_name_H-M_alt              'P 1'
_space_group_IT_number                 1

loop_
_space_group_symop_operation_xyz
   'x, y, z'

loop_
   _atom_site_label
   _atom_site_occupancy
   _atom_site_fract_x
   _atom_site_fract_y
   _atom_site_fract_z
   _atom_site_adp_type
   _atom_site_B_iso_or_equiv
   _atom_site_type_symbol
   C1         1.0     0.003788      0.002486      0.166520     Biso  1.000000 C
   C2         1.0     0.115664      0.057984      0.166661     Biso  1.000000 C
   C3         1.0     0.008257      0.171277      0.167436     Biso  1.000000 C
   C4         1.0     0.121707      0.228022      0.167188     Biso  1.000000 C
   C5         1.0     0.003783      0.335600      0.165624     Biso  1.000000 C
   C6         1.0     0.115715      0.391991      0.164741     Biso  1.000000 C
   C7         1.0     0.999297      0.500657      0.164501     Biso  1.000000 C
   C8         1.0     0.110734      0.556681      0.164462     Biso  1.000000 C
   C9         1.0     0.998417      0.666313      0.165002     Biso  1.000000 C
   C10        1.0     0.110100      0.722147      0.165973     Biso  1.000000 C
   C11        1.0     0.999417      0.832890      0.165805     Biso  1.000000 C
   C12        1.0     0.110799      0.888268      0.166894     Biso  1.000000 C
   C13        1.0     0.167712      0.999351      0.167176     Biso  1.000000 C
   C14        1.0     0.278623      0.053614      0.167897     Biso  1.000000 C
   C15        1.0     0.176673      0.170535      0.166747     Biso  1.000000 C
   C16        1.0     0.176651      0.340421      0.165780     Biso  1.000000 C
   C17        1.0     0.167759      0.502688      0.164005     Biso  1.000000 C
   C18        1.0     0.278657      0.559417      0.163682     Biso  1.000000 C
   C19        1.0     0.166379      0.667534      0.165395     Biso  1.000000 C
   C20        1.0     0.277800      0.723588      0.166019     Biso  1.000000 C
   C21        1.0     0.166429      0.833060      0.167251     Biso  1.000000 C
   C22        1.0     0.277797      0.888436      0.168394     Biso  1.000000 C
   C23        1.0     0.334341      0.998819      0.169034     Biso  1.000000 C
   C24        1.0     0.445265      0.054283      0.169275     Biso  1.000000 C
   C25        1.0     0.334027      0.163430      0.166935     Biso  1.000000 C
   C26        1.0     0.445768      0.219368      0.167166     Biso  1.000000 C
   C27        1.0     0.334117      0.505056      0.163159     Biso  1.000000 C
   C28        1.0     0.445818      0.560793      0.162380     Biso  1.000000 C
   C29        1.0     0.334463      0.669926      0.164771     Biso  1.000000 C
   C30        1.0     0.445391      0.725291      0.165090     Biso  1.000000 C
   C31        1.0     0.334031      0.834110      0.167798     Biso  1.000000 C
   C32        1.0     0.445527      0.889847      0.168331     Biso  1.000000 C
   C33        1.0     0.501800      0.000429      0.169341     Biso  1.000000 C
   C34        1.0     0.613235      0.056408      0.169061     Biso  1.000000 C
   C35        1.0     0.501069      0.164838      0.168282     Biso  1.000000 C
   C36        1.0     0.611965      0.221436      0.167540     Biso  1.000000 C
   C37        1.0     0.603294      0.383954      0.165638     Biso  1.000000 C
   C38        1.0     0.603218      0.553695      0.162956     Biso  1.000000 C
   C39        1.0     0.501183      0.670564      0.163381     Biso  1.000000 C
   C40        1.0     0.612025      0.724716      0.163558     Biso  1.000000 C
   C41        1.0     0.501897      0.835640      0.166822     Biso  1.000000 C
   C42        1.0     0.613287      0.891047      0.166851     Biso  1.000000 C
   C43        1.0     0.669666      0.001935      0.168275     Biso  1.000000 C
   C44        1.0     0.781380      0.057822      0.167956     Biso  1.000000 C
   C45        1.0     0.668866      0.167253      0.168359     Biso  1.000000 C
   C46        1.0     0.780315      0.223265      0.167395     Biso  1.000000 C
   C47        1.0     0.664019      0.332161      0.165783     Biso  1.000000 C
   C48        1.0     0.775957      0.388518      0.165121     Biso  1.000000 C
   C49        1.0     0.658162      0.496352      0.164064     Biso  1.000000 C
   C50        1.0     0.771550      0.552957      0.163908     Biso  1.000000 C
   C51        1.0     0.664037      0.666038      0.162568     Biso  1.000000 C
   C52        1.0     0.775984      0.721664      0.163564     Biso  1.000000 C
   C53        1.0     0.668927      0.835811      0.165187     Biso  1.000000 C
   C54        1.0     0.780369      0.891290      0.165650     Biso  1.000000 C
   C55        1.0     0.837668      0.003004      0.166996     Biso  1.000000 C
   C56        1.0     0.949719      0.059252      0.167092     Biso  1.000000 C
   C57        1.0     0.837681      0.168922      0.167766     Biso  1.000000 C
   C58        1.0     0.949749      0.224772      0.167095     Biso  1.000000 C
   C59        1.0     0.833829      0.334095      0.165847     Biso  1.000000 C
   C60        1.0     0.945677      0.389793      0.165131     Biso  1.000000 C
   C61        1.0     0.830019      0.499379      0.164334     Biso  1.000000 C
   C62        1.0     0.942131      0.555179      0.164505     Biso  1.000000 C
   C63        1.0     0.830097      0.664964      0.163947     Biso  1.000000 C
   C64        1.0     0.942176      0.721179      0.164960     Biso  1.000000 C
   C65        1.0     0.833938      0.833962      0.164836     Biso  1.000000 C
   C66        1.0     0.945781      0.890163      0.165781     Biso  1.000000 C
   C67        1.0     0.447304      0.418260      0.360441     Biso  1.000000 C
   N1         1.0     0.284627      0.220640      0.165306     Biso  1.000000 N
   N2         1.0     0.284767      0.398403      0.164251     Biso  1.000000 N
   N3         1.0     0.495161      0.326129      0.166179     Biso  1.000000 N
   N4         1.0     0.494983      0.503324      0.162717     Biso  1.000000 N
   Co1        1.0     0.390319      0.362617      0.177711     Biso  1.000000 Co
   O1         1.0     0.377692      0.350547      0.305287     Biso  1.000000 O
   O2         1.0     0.529518      0.500050      0.345743     Biso  1.000000 O
   H1         1.0     0.421510      0.391332      0.430305     Biso  1.000000 H
