#======================================================================

# CRYSTAL DATA

#----------------------------------------------------------------------

data_VESTA_phase_1


_chemical_name_common                  'graphite\(2)\(0\0\-1)                 '
_cell_length_a                         14.76000
_cell_length_b                         14.76000
_cell_length_c                         15.00000
_cell_angle_alpha                      90
_cell_angle_beta                       90
_cell_angle_gamma                      120
_space_group_name_H-M_alt              'P 1'
_space_group_IT_number                 1

loop_
_space_group_symop_operation_xyz
   'x, y, z'

loop_
   _atom_site_label
   _atom_site_occupancy
   _atom_site_fract_x
   _atom_site_fract_y
   _atom_site_fract_z
   _atom_site_adp_type
   _atom_site_B_iso_or_equiv
   _atom_site_type_symbol
   C1         1.0     0.003248      0.002211      0.168096     Biso  1.000000 C
   C2         1.0     0.115111      0.057730      0.167379     Biso  1.000000 C
   C3         1.0     0.007595      0.170905      0.170153     Biso  1.000000 C
   C4         1.0     0.121118      0.227661      0.170480     Biso  1.000000 C
   C5         1.0     0.003229      0.335279      0.168631     Biso  1.000000 C
   C6         1.0     0.115089      0.391646      0.167075     Biso  1.000000 C
   C7         1.0    -0.001125      0.500491      0.166830     Biso  1.000000 C
   C8         1.0     0.110223      0.556450      0.164457     Biso  1.000000 C
   C9         1.0    -0.002130      0.666052      0.166192     Biso  1.000000 C
   C10        1.0     0.109601      0.721918      0.164137     Biso  1.000000 C
   C11        1.0    -0.001099      0.832669      0.166249     Biso  1.000000 C
   C12        1.0     0.110264      0.888035      0.164832     Biso  1.000000 C
   C13        1.0     0.167125     -0.000940      0.165088     Biso  1.000000 C
   C14        1.0     0.278045      0.053203      0.163972     Biso  1.000000 C
   C15        1.0     0.176120      0.170322      0.168977     Biso  1.000000 C
   C16        1.0     0.176047      0.339964      0.168681     Biso  1.000000 C
   C17        1.0     0.167103      0.502343      0.164232     Biso  1.000000 C
   C18        1.0     0.278030      0.559155      0.162046     Biso  1.000000 C
   C19        1.0     0.165883      0.667384      0.163000     Biso  1.000000 C
   C20        1.0     0.277197      0.723381      0.161339     Biso  1.000000 C
   C21        1.0     0.165882      0.832749      0.163484     Biso  1.000000 C
   C22        1.0     0.277201      0.888079      0.162310     Biso  1.000000 C
   C23        1.0     0.333795     -0.001568      0.162726     Biso  1.000000 C
   C24        1.0     0.444600      0.053812      0.163099     Biso  1.000000 C
   C25        1.0     0.333518      0.162787      0.165336     Biso  1.000000 C
   C26        1.0     0.444839      0.218376      0.165975     Biso  1.000000 C
   C27        1.0     0.333467      0.504981      0.163355     Biso  1.000000 C
   C28        1.0     0.444749      0.560770      0.163084     Biso  1.000000 C
   C29        1.0     0.333824      0.669687      0.160729     Biso  1.000000 C
   C30        1.0     0.444634      0.725148      0.160564     Biso  1.000000 C
   C31        1.0     0.333538      0.833914      0.161425     Biso  1.000000 C
   C32        1.0     0.445045      0.889658      0.161490     Biso  1.000000 C
   C33        1.0     0.501356      0.000178      0.162724     Biso  1.000000 C
   C34        1.0     0.612680      0.056177      0.164429     Biso  1.000000 C
   C35        1.0     0.500391      0.164340      0.164791     Biso  1.000000 C
   C36        1.0     0.611404      0.221110      0.166643     Biso  1.000000 C
   C37        1.0     0.602513      0.383437      0.169463     Biso  1.000000 C
   C38        1.0     0.602521      0.553521      0.167319     Biso  1.000000 C
   C39        1.0     0.500349      0.670356      0.161549     Biso  1.000000 C
   C40        1.0     0.611368      0.724616      0.163313     Biso  1.000000 C
   C41        1.0     0.501410      0.835510      0.161295     Biso  1.000000 C
   C42        1.0     0.612737      0.890856      0.163031     Biso  1.000000 C
   C43        1.0     0.669035      0.001697      0.164740     Biso  1.000000 C
   C44        1.0     0.780759      0.057533      0.167103     Biso  1.000000 C
   C45        1.0     0.668334      0.167074      0.166402     Biso  1.000000 C
   C46        1.0     0.779774      0.223091      0.168129     Biso  1.000000 C
   C47        1.0     0.663497      0.331828      0.168526     Biso  1.000000 C
   C48        1.0     0.775449      0.388308      0.168923     Biso  1.000000 C
   C49        1.0     0.657480      0.495975      0.169827     Biso  1.000000 C
   C50        1.0     0.771248      0.552813      0.169291     Biso  1.000000 C
   C51        1.0     0.663501      0.666056      0.165541     Biso  1.000000 C
   C52        1.0     0.775405      0.721416      0.166768     Biso  1.000000 C
   C53        1.0     0.668399      0.835591      0.163874     Biso  1.000000 C
   C54        1.0     0.779831      0.890983      0.166131     Biso  1.000000 C
   C55        1.0     0.837096      0.002747      0.167573     Biso  1.000000 C
   C56        1.0     0.949112      0.058995      0.169111     Biso  1.000000 C
   C57        1.0     0.837055      0.168594      0.168514     Biso  1.000000 C
   C58        1.0     0.949114      0.224355      0.169619     Biso  1.000000 C
   C59        1.0     0.833380      0.333970      0.168833     Biso  1.000000 C
   C60        1.0     0.945277      0.389628      0.168299     Biso  1.000000 C
   C61        1.0     0.829577      0.499264      0.168916     Biso  1.000000 C
   C62        1.0     0.941647      0.554998      0.167372     Biso  1.000000 C
   C63        1.0     0.829554      0.664630      0.167953     Biso  1.000000 C
   C64        1.0     0.941652      0.720906      0.166838     Biso  1.000000 C
   C65        1.0     0.833403      0.833641      0.166792     Biso  1.000000 C
   C66        1.0     0.945291      0.889932      0.167210     Biso  1.000000 C
   C67        1.0     0.382804      0.359546      0.306554     Biso  1.000000 C
   N1         1.0     0.283983      0.220205      0.167522     Biso  1.000000 N
   N2         1.0     0.283991      0.398003      0.166892     Biso  1.000000 N
   N3         1.0     0.494347      0.325473      0.169146     Biso  1.000000 N
   N4         1.0     0.494257      0.503175      0.166630     Biso  1.000000 N
   Co1        1.0     0.388800      0.361647      0.179148     Biso  1.000000 Co
   O1         1.0     0.476252      0.414328      0.350079     Biso  1.000000 O
   O2         1.0     0.302108      0.313239      0.348200     Biso  1.000000 O
   H1         1.0     0.532382      0.446522      0.305977     Biso  1.000000 H
