#======================================================================

# CRYSTAL DATA

#----------------------------------------------------------------------

data_VESTA_phase_1


_chemical_name_common                  'CONTCAR\(2)                           '
_cell_length_a                         14.76000
_cell_length_b                         14.76000
_cell_length_c                         15.00000
_cell_angle_alpha                      90
_cell_angle_beta                       90
_cell_angle_gamma                      120
_space_group_name_H-M_alt              'P 1'
_space_group_IT_number                 1

loop_
_space_group_symop_operation_xyz
   'x, y, z'

loop_
   _atom_site_label
   _atom_site_occupancy
   _atom_site_fract_x
   _atom_site_fract_y
   _atom_site_fract_z
   _atom_site_adp_type
   _atom_site_B_iso_or_equiv
   _atom_site_type_symbol
   C1         1.0     0.002799      0.001679      0.166779     Biso  1.000000 C
   C2         1.0     0.114712      0.057198      0.166478     Biso  1.000000 C
   C3         1.0     0.006922      0.170277      0.168105     Biso  1.000000 C
   C4         1.0     0.120527      0.227065      0.168493     Biso  1.000000 C
   C5         1.0     0.002783      0.334740      0.166530     Biso  1.000000 C
   C6         1.0     0.114695      0.391140      0.166016     Biso  1.000000 C
   C7         1.0     0.998584      0.499970      0.166332     Biso  1.000000 C
   C8         1.0     0.110013      0.555969      0.165961     Biso  1.000000 C
   C9         1.0     0.997579      0.665578      0.167019     Biso  1.000000 C
   C10        1.0     0.109380      0.721481      0.166864     Biso  1.000000 C
   C11        1.0     0.998624      0.832227      0.166597     Biso  1.000000 C
   C12        1.0     0.110059      0.887684      0.166494     Biso  1.000000 C
   C13        1.0     0.166923      0.998689      0.166068     Biso  1.000000 C
   C14        1.0     0.277905      0.052858      0.165577     Biso  1.000000 C
   C15        1.0     0.175464      0.169749      0.167524     Biso  1.000000 C
   C16        1.0     0.175435      0.339335      0.167184     Biso  1.000000 C
   C17        1.0     0.166877      0.501852      0.165304     Biso  1.000000 C
   C18        1.0     0.277829      0.558620      0.164700     Biso  1.000000 C
   C19        1.0     0.165662      0.666918      0.166349     Biso  1.000000 C
   C20        1.0     0.277021      0.722926      0.166161     Biso  1.000000 C
   C21        1.0     0.165688      0.832357      0.166800     Biso  1.000000 C
   C22        1.0     0.277053      0.887715      0.166702     Biso  1.000000 C
   C23        1.0     0.333604      0.998146      0.166060     Biso  1.000000 C
   C24        1.0     0.444498      0.053573      0.166005     Biso  1.000000 C
   C25        1.0     0.333336      0.162684      0.165289     Biso  1.000000 C
   C26        1.0     0.444697      0.218364      0.165150     Biso  1.000000 C
   C27        1.0     0.333282      0.504219      0.164626     Biso  1.000000 C
   C28        1.0     0.444634      0.559878      0.164553     Biso  1.000000 C
   C29        1.0     0.333570      0.669044      0.165181     Biso  1.000000 C
   C30        1.0     0.444475      0.724477      0.165264     Biso  1.000000 C
   C31        1.0     0.333276      0.833418      0.166639     Biso  1.000000 C
   C32        1.0     0.444831      0.889203      0.166672     Biso  1.000000 C
   C33        1.0     0.500994      0.999661      0.166707     Biso  1.000000 C
   C34        1.0     0.612352      0.055607      0.166905     Biso  1.000000 C
   C35        1.0     0.500183      0.163932      0.165227     Biso  1.000000 C
   C36        1.0     0.611135      0.220683      0.165733     Biso  1.000000 C
   C37        1.0     0.602476      0.383176      0.167000     Biso  1.000000 C
   C38        1.0     0.602436      0.552859      0.166709     Biso  1.000000 C
   C39        1.0     0.500121      0.669761      0.164583     Biso  1.000000 C
   C40        1.0     0.611062      0.723958      0.165202     Biso  1.000000 C
   C41        1.0     0.501014      0.834891      0.166217     Biso  1.000000 C
   C42        1.0     0.612388      0.890277      0.166523     Biso  1.000000 C
   C43        1.0     0.668631      0.001084      0.167122     Biso  1.000000 C
   C44        1.0     0.780389      0.056958      0.167296     Biso  1.000000 C
   C45        1.0     0.667984      0.166559      0.166419     Biso  1.000000 C
   C46        1.0     0.779471      0.222554      0.166631     Biso  1.000000 C
   C47        1.0     0.663240      0.331391      0.165957     Biso  1.000000 C
   C48        1.0     0.775225      0.387790      0.166317     Biso  1.000000 C
   C49        1.0     0.657302      0.495443      0.167774     Biso  1.000000 C
   C50        1.0     0.770983      0.552264      0.167382     Biso  1.000000 C
   C51        1.0     0.663195      0.665400      0.165570     Biso  1.000000 C
   C52        1.0     0.775208      0.720978      0.166084     Biso  1.000000 C
   C53        1.0     0.667976      0.834928      0.165963     Biso  1.000000 C
   C54        1.0     0.779456      0.890414      0.166374     Biso  1.000000 C
   C55        1.0     0.836603      0.002129      0.167136     Biso  1.000000 C
   C56        1.0     0.948650      0.058431      0.167497     Biso  1.000000 C
   C57        1.0     0.836612      0.168000      0.167222     Biso  1.000000 C
   C58        1.0     0.948651      0.223832      0.167402     Biso  1.000000 C
   C59        1.0     0.833106      0.333413      0.166284     Biso  1.000000 C
   C60        1.0     0.945009      0.389140      0.166289     Biso  1.000000 C
   C61        1.0     0.829262      0.498692      0.166947     Biso  1.000000 C
   C62        1.0     0.941392      0.554521      0.166849     Biso  1.000000 C
   C63        1.0     0.829267      0.664128      0.166857     Biso  1.000000 C
   C64        1.0     0.941399      0.720450      0.166895     Biso  1.000000 C
   C65        1.0     0.833135      0.833222      0.166153     Biso  1.000000 C
   C66        1.0     0.945033      0.889480      0.166442     Biso  1.000000 C
   N1         1.0     0.283508      0.219728      0.166319     Biso  1.000000 N
   N2         1.0     0.283457      0.397383      0.165911     Biso  1.000000 N
   N3         1.0     0.494454      0.325180      0.166147     Biso  1.000000 N
   N4         1.0     0.494412      0.502846      0.165705     Biso  1.000000 N
   Co1        1.0     0.388964      0.361359      0.185087     Biso  1.000000 Co
   O1         1.0     0.388764      0.361687      0.299524     Biso  1.000000 O
