#======================================================================

# CRYSTAL DATA

#----------------------------------------------------------------------

data_VESTA_phase_1


_chemical_name_common                  'graphite\(2)\(0\0\-1)                 '
_cell_length_a                         14.76000
_cell_length_b                         14.76000
_cell_length_c                         15.00000
_cell_angle_alpha                      90
_cell_angle_beta                       90
_cell_angle_gamma                      120
_space_group_name_H-M_alt              'P 1'
_space_group_IT_number                 1

loop_
_space_group_symop_operation_xyz
   'x, y, z'

loop_
   _atom_site_label
   _atom_site_occupancy
   _atom_site_fract_x
   _atom_site_fract_y
   _atom_site_fract_z
   _atom_site_adp_type
   _atom_site_B_iso_or_equiv
   _atom_site_type_symbol
   C1         1.0     0.002894      0.001785      0.166469     Biso  1.000000 C
   C2         1.0     0.114729      0.057234      0.166365     Biso  1.000000 C
   C3         1.0     0.007066      0.170391      0.167408     Biso  1.000000 C
   C4         1.0     0.120545      0.227113      0.167648     Biso  1.000000 C
   C5         1.0     0.002920      0.334843      0.166226     Biso  1.000000 C
   C6         1.0     0.114798      0.391242      0.165953     Biso  1.000000 C
   C7         1.0    -0.001348      0.500105      0.165821     Biso  1.000000 C
   C8         1.0     0.110057      0.556060      0.165826     Biso  1.000000 C
   C9         1.0    -0.002362      0.665661      0.166424     Biso  1.000000 C
   C10        1.0     0.109364      0.721478      0.166526     Biso  1.000000 C
   C11        1.0    -0.001330      0.832272      0.166259     Biso  1.000000 C
   C12        1.0     0.110078      0.887672      0.166438     Biso  1.000000 C
   C13        1.0     0.166946     -0.001346      0.166272     Biso  1.000000 C
   C14        1.0     0.277917      0.052811      0.166373     Biso  1.000000 C
   C15        1.0     0.175549      0.169770      0.167098     Biso  1.000000 C
   C16        1.0     0.175659      0.339539      0.166803     Biso  1.000000 C
   C17        1.0     0.166994      0.501984      0.165611     Biso  1.000000 C
   C18        1.0     0.277962      0.558730      0.165552     Biso  1.000000 C
   C19        1.0     0.165715      0.666981      0.166217     Biso  1.000000 C
   C20        1.0     0.277011      0.722927      0.166286     Biso  1.000000 C
   C21        1.0     0.165699      0.832346      0.166709     Biso  1.000000 C
   C22        1.0     0.276998      0.887647      0.166847     Biso  1.000000 C
   C23        1.0     0.333636     -0.001991      0.166657     Biso  1.000000 C
   C24        1.0     0.444463      0.053450      0.166707     Biso  1.000000 C
   C25        1.0     0.333368      0.162507      0.166531     Biso  1.000000 C
   C26        1.0     0.444748      0.218213      0.166429     Biso  1.000000 C
   C27        1.0     0.333366      0.504525      0.165586     Biso  1.000000 C
   C28        1.0     0.444726      0.560198      0.165445     Biso  1.000000 C
   C29        1.0     0.333695      0.669260      0.165791     Biso  1.000000 C
   C30        1.0     0.444497      0.724674      0.165843     Biso  1.000000 C
   C31        1.0     0.333332      0.833422      0.166742     Biso  1.000000 C
   C32        1.0     0.444825      0.889209      0.166850     Biso  1.000000 C
   C33        1.0     0.501103     -0.000267      0.167029     Biso  1.000000 C
   C34        1.0     0.612412      0.055676      0.166991     Biso  1.000000 C
   C35        1.0     0.500203      0.163913      0.166338     Biso  1.000000 C
   C36        1.0     0.611165      0.220668      0.166121     Biso  1.000000 C
   C37        1.0     0.602448      0.383178      0.166532     Biso  1.000000 C
   C38        1.0     0.602360      0.552934      0.166373     Biso  1.000000 C
   C39        1.0     0.500184      0.669874      0.165391     Biso  1.000000 C
   C40        1.0     0.611148      0.724116      0.165588     Biso  1.000000 C
   C41        1.0     0.501130      0.835006      0.166458     Biso  1.000000 C
   C42        1.0     0.612459      0.890406      0.166565     Biso  1.000000 C
   C43        1.0     0.668742      0.001197      0.166983     Biso  1.000000 C
   C44        1.0     0.780432      0.057043      0.167042     Biso  1.000000 C
   C45        1.0     0.668051      0.166617      0.166493     Biso  1.000000 C
   C46        1.0     0.779510      0.222612      0.166360     Biso  1.000000 C
   C47        1.0     0.663279      0.331450      0.165831     Biso  1.000000 C
   C48        1.0     0.775180      0.387848      0.165904     Biso  1.000000 C
   C49        1.0     0.657386      0.495547      0.166950     Biso  1.000000 C
   C50        1.0     0.770935      0.552321      0.166632     Biso  1.000000 C
   C51        1.0     0.663224      0.665475      0.165693     Biso  1.000000 C
   C52        1.0     0.775177      0.721011      0.165980     Biso  1.000000 C
   C53        1.0     0.668079      0.835104      0.166091     Biso  1.000000 C
   C54        1.0     0.779494      0.890538      0.166316     Biso  1.000000 C
   C55        1.0     0.836700      0.002257      0.166831     Biso  1.000000 C
   C56        1.0     0.948672      0.058500      0.166983     Biso  1.000000 C
   C57        1.0     0.836710      0.168103      0.166859     Biso  1.000000 C
   C58        1.0     0.948682      0.223889      0.166946     Biso  1.000000 C
   C59        1.0     0.833154      0.333483      0.165900     Biso  1.000000 C
   C60        1.0     0.945049      0.389211      0.165832     Biso  1.000000 C
   C61        1.0     0.829297      0.498785      0.166258     Biso  1.000000 C
   C62        1.0     0.941383      0.554592      0.166184     Biso  1.000000 C
   C63        1.0     0.829336      0.664225      0.166358     Biso  1.000000 C
   C64        1.0     0.941390      0.720495      0.166409     Biso  1.000000 C
   C65        1.0     0.833164      0.833291      0.166054     Biso  1.000000 C
   C66        1.0     0.945043      0.889517      0.166192     Biso  1.000000 C
   C67        1.0     0.389222      0.361635      0.301081     Biso  1.000000 C
   N1         1.0     0.283604      0.219911      0.166740     Biso  1.000000 N
   N2         1.0     0.283628      0.397508      0.166170     Biso  1.000000 N
   N3         1.0     0.494442      0.325333      0.166391     Biso  1.000000 N
   N4         1.0     0.494399      0.502905      0.165920     Biso  1.000000 N
   Co1        1.0     0.389039      0.361627      0.176968     Biso  1.000000 Co
   O1         1.0     0.386939      0.425972      0.349280     Biso  1.000000 O
   H1         1.0     0.391620      0.291914      0.328037     Biso  1.000000 H
