#======================================================================

# CRYSTAL DATA

#----------------------------------------------------------------------

data_VESTA_phase_1


_chemical_name_common                  'CONTCAR\(2)\(2)                       '
_cell_length_a                         14.76000
_cell_length_b                         14.76000
_cell_length_c                         15.00000
_cell_angle_alpha                      90
_cell_angle_beta                       90
_cell_angle_gamma                      120
_space_group_name_H-M_alt              'P 1'
_space_group_IT_number                 1

loop_
_space_group_symop_operation_xyz
   'x, y, z'

loop_
   _atom_site_label
   _atom_site_occupancy
   _atom_site_fract_x
   _atom_site_fract_y
   _atom_site_fract_z
   _atom_site_adp_type
   _atom_site_B_iso_or_equiv
   _atom_site_type_symbol
   C1         1.0     0.000369      0.998342      0.171168     Biso  1.000000 C
   C2         1.0     0.113021      0.055812      0.170786     Biso  1.000000 C
   C3         1.0     0.004113      0.166707      0.170603     Biso  1.000000 C
   C4         1.0     0.118063      0.225214      0.173180     Biso  1.000000 C
   C5         1.0     0.001211      0.332316      0.164763     Biso  1.000000 C
   C6         1.0     0.112480      0.389658      0.164327     Biso  1.000000 C
   C7         1.0     0.998910      0.498771      0.161753     Biso  1.000000 C
   C8         1.0     0.109335      0.555789      0.158488     Biso  1.000000 C
   C9         1.0     0.999512      0.665355      0.163470     Biso  1.000000 C
   C10        1.0     0.110329      0.722431      0.159569     Biso  1.000000 C
   C11        1.0    -0.000238      0.831891      0.168082     Biso  1.000000 C
   C12        1.0     0.110946      0.888658      0.165132     Biso  1.000000 C
   C13        1.0     0.167613     -0.000140      0.167214     Biso  1.000000 C
   C14        1.0     0.279432      0.055876      0.165099     Biso  1.000000 C
   C15        1.0     0.173750      0.168549      0.174041     Biso  1.000000 C
   C16        1.0     0.172435      0.338059      0.170476     Biso  1.000000 C
   C17        1.0     0.164494      0.500870      0.159545     Biso  1.000000 C
   C18        1.0     0.274304      0.559008      0.157496     Biso  1.000000 C
   C19        1.0     0.165072      0.667128      0.156453     Biso  1.000000 C
   C20        1.0     0.275715      0.724009      0.153589     Biso  1.000000 C
   C21        1.0     0.166329      0.833429      0.160397     Biso  1.000000 C
   C22        1.0     0.277319      0.889572      0.157797     Biso  1.000000 C
   C23        1.0     0.334422      0.000536      0.160355     Biso  1.000000 C
   C24        1.0     0.445214      0.056156      0.159982     Biso  1.000000 C
   C25        1.0     0.335335      0.166456      0.169797     Biso  1.000000 C
   C26        1.0     0.448352      0.223848      0.169089     Biso  1.000000 C
   C27        1.0     0.328772      0.504927      0.164101     Biso  1.000000 C
   C28        1.0     0.438897      0.561553      0.165875     Biso  1.000000 C
   C29        1.0     0.330412      0.669343      0.153732     Biso  1.000000 C
   C30        1.0     0.440980      0.725725      0.155473     Biso  1.000000 C
   C31        1.0     0.332563      0.834803      0.154406     Biso  1.000000 C
   C32        1.0     0.444016      0.890728      0.155200     Biso  1.000000 C
   C33        1.0     0.500873      0.001064      0.158022     Biso  1.000000 C
   C34        1.0     0.612026      0.054757      0.160667     Biso  1.000000 C
   C35        1.0     0.501319      0.167118      0.163890     Biso  1.000000 C
   C36        1.0     0.612623      0.222436      0.164539     Biso  1.000000 C
   C37        1.0     0.611447      0.390986      0.172300     Biso  1.000000 C
   C38        1.0     0.494811      0.671234      0.161198     Biso  1.000000 C
   C39        1.0     0.498984      0.835550      0.156320     Biso  1.000000 C
   C40        1.0     0.609874      0.886772      0.161059     Biso  1.000000 C
   C41        1.0     0.667039      0.998155      0.162282     Biso  1.000000 C
   C42        1.0     0.778472      0.052500      0.165831     Biso  1.000000 C
   C43        1.0     0.667980      0.166228      0.162988     Biso  1.000000 C
   C44        1.0     0.779180      0.220487      0.164424     Biso  1.000000 C
   C45        1.0     0.667068      0.333687      0.167402     Biso  1.000000 C
   C46        1.0     0.778081      0.387368      0.166348     Biso  1.000000 C
   C47        1.0     0.776407      0.551669      0.171325     Biso  1.000000 C
   C48        1.0     0.661232      0.825943      0.166075     Biso  1.000000 C
   C49        1.0     0.774121      0.880762      0.169782     Biso  1.000000 C
   C50        1.0     0.832369      0.994748      0.168899     Biso  1.000000 C
   C51        1.0     0.945134      0.053843      0.170894     Biso  1.000000 C
   C52        1.0     0.834978      0.164202      0.165702     Biso  1.000000 C
   C53        1.0     0.946806      0.220855      0.167277     Biso  1.000000 C
   C54        1.0     0.833758      0.331617      0.164640     Biso  1.000000 C
   C55        1.0     0.945054      0.387620      0.163585     Biso  1.000000 C
   C56        1.0     0.833054      0.498420      0.167494     Biso  1.000000 C
   C57        1.0     0.944026      0.554576      0.163952     Biso  1.000000 C
   C58        1.0     0.833497      0.664153      0.171098     Biso  1.000000 C
   C59        1.0     0.943984      0.720228      0.167391     Biso  1.000000 C
   C60        1.0     0.830042      0.824655      0.171873     Biso  1.000000 C
   C61        1.0     0.942985      0.885655      0.170789     Biso  1.000000 C
   C62        1.0     0.400201      0.373089      0.329010     Biso  1.000000 C
   N1         1.0     0.281934      0.220382      0.176889     Biso  1.000000 N
   N2         1.0     0.280141      0.398124      0.173464     Biso  1.000000 N
   N3         1.0     0.502653      0.333219      0.175695     Biso  1.000000 N
   N4         1.0     0.493576      0.511633      0.176854     Biso  1.000000 N
   N5         1.0     0.601925      0.718146      0.167299     Biso  1.000000 N
   N6         1.0     0.667364      0.499769      0.174472     Biso  1.000000 N
   N7         1.0     0.777581      0.715631      0.173519     Biso  1.000000 N
   Co1        1.0     0.633702      0.610241      0.176325     Biso  1.000000 Co
   Cr1        1.0     0.394270      0.369325      0.202980     Biso  1.000000 Cr
   O1         1.0     0.404904      0.376462      0.406489     Biso  1.000000 O
