#======================================================================

# CRYSTAL DATA

#----------------------------------------------------------------------

data_VESTA_phase_1


_chemical_name_common                  'CONTCAR\(24)                          '
_cell_length_a                         14.76000
_cell_length_b                         14.76000
_cell_length_c                         15.00000
_cell_angle_alpha                      90
_cell_angle_beta                       90
_cell_angle_gamma                      120
_space_group_name_H-M_alt              'P 1'
_space_group_IT_number                 1

loop_
_space_group_symop_operation_xyz
   'x, y, z'

loop_
   _atom_site_label
   _atom_site_occupancy
   _atom_site_fract_x
   _atom_site_fract_y
   _atom_site_fract_z
   _atom_site_adp_type
   _atom_site_B_iso_or_equiv
   _atom_site_type_symbol
   C1         1.0    -0.000397      0.995413      0.169695     Biso  1.000000 C
   C2         1.0     0.112046      0.052734      0.167937     Biso  1.000000 C
   C3         1.0     0.003377      0.163949      0.172747     Biso  1.000000 C
   C4         1.0     0.117054      0.222374      0.175299     Biso  1.000000 C
   C5         1.0     0.000263      0.329756      0.165685     Biso  1.000000 C
   C6         1.0     0.111299      0.387432      0.167969     Biso  1.000000 C
   C7         1.0     0.998259      0.496245      0.156546     Biso  1.000000 C
   C8         1.0     0.108657      0.553354      0.155111     Biso  1.000000 C
   C9         1.0     0.998923      0.662853      0.154182     Biso  1.000000 C
   C10        1.0     0.109867      0.720068      0.150246     Biso  1.000000 C
   C11        1.0     0.999183      0.829329      0.160691     Biso  1.000000 C
   C12        1.0     0.110471      0.886272      0.156583     Biso  1.000000 C
   C13        1.0     0.167091      0.997317      0.160943     Biso  1.000000 C
   C14        1.0     0.279076      0.053208      0.159069     Biso  1.000000 C
   C15        1.0     0.172484      0.165288      0.173053     Biso  1.000000 C
   C16        1.0     0.170968      0.335819      0.175992     Biso  1.000000 C
   C17        1.0     0.163682      0.498529      0.162177     Biso  1.000000 C
   C18        1.0     0.273671      0.557008      0.165405     Biso  1.000000 C
   C19        1.0     0.164623      0.664776      0.150571     Biso  1.000000 C
   C20        1.0     0.275412      0.721712      0.151185     Biso  1.000000 C
   C21        1.0     0.165918      0.831116      0.150624     Biso  1.000000 C
   C22        1.0     0.276964      0.887186      0.149336     Biso  1.000000 C
   C23        1.0     0.334095      0.998035      0.153010     Biso  1.000000 C
   C24        1.0     0.444933      0.053611      0.154464     Biso  1.000000 C
   C25        1.0     0.334680      0.163497      0.166174     Biso  1.000000 C
   C26        1.0     0.448390      0.221169      0.165784     Biso  1.000000 C
   C27        1.0     0.327351      0.503135      0.177520     Biso  1.000000 C
   C28        1.0     0.438489      0.560282      0.181452     Biso  1.000000 C
   C29        1.0     0.330016      0.667357      0.159004     Biso  1.000000 C
   C30        1.0     0.440328      0.723790      0.163597     Biso  1.000000 C
   C31        1.0     0.332312      0.832457      0.149339     Biso  1.000000 C
   C32        1.0     0.443654      0.888317      0.152816     Biso  1.000000 C
   C33        1.0     0.500669      0.998661      0.154284     Biso  1.000000 C
   C34        1.0     0.611671      0.052252      0.159193     Biso  1.000000 C
   C35        1.0     0.501066      0.164420      0.159846     Biso  1.000000 C
   C36        1.0     0.612457      0.219984      0.160906     Biso  1.000000 C
   C37        1.0     0.611431      0.388324      0.169038     Biso  1.000000 C
   C38        1.0     0.494196      0.669787      0.174399     Biso  1.000000 C
   C39        1.0     0.498515      0.833320      0.159328     Biso  1.000000 C
   C40        1.0     0.609335      0.884486      0.164798     Biso  1.000000 C
   C41        1.0     0.666645      0.995753      0.163612     Biso  1.000000 C
   C42        1.0     0.777932      0.049959      0.168004     Biso  1.000000 C
   C43        1.0     0.667668      0.163701      0.160660     Biso  1.000000 C
   C44        1.0     0.778748      0.217977      0.162984     Biso  1.000000 C
   C45        1.0     0.667283      0.331272      0.163261     Biso  1.000000 C
   C46        1.0     0.777841      0.384959      0.161476     Biso  1.000000 C
   C47        1.0     0.775703      0.549244      0.165278     Biso  1.000000 C
   C48        1.0     0.660883      0.823987      0.171916     Biso  1.000000 C
   C49        1.0     0.773616      0.878350      0.172677     Biso  1.000000 C
   C50        1.0     0.831809      0.992274      0.171449     Biso  1.000000 C
   C51        1.0     0.944478      0.051079      0.172268     Biso  1.000000 C
   C52        1.0     0.834486      0.161693      0.166705     Biso  1.000000 C
   C53        1.0     0.946034      0.218231      0.169180     Biso  1.000000 C
   C54        1.0     0.833321      0.329090      0.161404     Biso  1.000000 C
   C55        1.0     0.944457      0.385070      0.160927     Biso  1.000000 C
   C56        1.0     0.832491      0.496141      0.160675     Biso  1.000000 C
   C57        1.0     0.943348      0.552146      0.156098     Biso  1.000000 C
   C58        1.0     0.833033      0.661811      0.164767     Biso  1.000000 C
   C59        1.0     0.943501      0.717707      0.159076     Biso  1.000000 C
   C60        1.0     0.829566      0.821999      0.170894     Biso  1.000000 C
   C61        1.0     0.942472      0.882913      0.167227     Biso  1.000000 C
   C62        1.0     0.637807      0.607761      0.316547     Biso  1.000000 C
   N1         1.0     0.280197      0.216169      0.173978     Biso  1.000000 N
   N2         1.0     0.277469      0.396046      0.182916     Biso  1.000000 N
   N3         1.0     0.503950      0.330445      0.172605     Biso  1.000000 N
   N4         1.0     0.494545      0.511508      0.187748     Biso  1.000000 N
   N5         1.0     0.601203      0.716392      0.176318     Biso  1.000000 N
   N6         1.0     0.667026      0.497454      0.171280     Biso  1.000000 N
   N7         1.0     0.777764      0.713573      0.170291     Biso  1.000000 N
   Co1        1.0     0.633828      0.608655      0.186037     Biso  1.000000 Co
   Cr1        1.0     0.393821      0.366367      0.187689     Biso  1.000000 Cr
   H1         1.0     0.605705      0.526493      0.338438     Biso  1.000000 H
   H2         1.0     0.590422      0.640673      0.341489     Biso  1.000000 H
   H3         1.0     0.720356      0.656398      0.335556     Biso  1.000000 H
