#======================================================================

# CRYSTAL DATA

#----------------------------------------------------------------------

data_VESTA_phase_1


_chemical_name_common                  'POSCAR\(15)                           '
_cell_length_a                         14.76000
_cell_length_b                         14.76000
_cell_length_c                         15.00000
_cell_angle_alpha                      90
_cell_angle_beta                       90
_cell_angle_gamma                      120
_space_group_name_H-M_alt              'P 1'
_space_group_IT_number                 1

loop_
_space_group_symop_operation_xyz
   'x, y, z'

loop_
   _atom_site_label
   _atom_site_occupancy
   _atom_site_fract_x
   _atom_site_fract_y
   _atom_site_fract_z
   _atom_site_adp_type
   _atom_site_B_iso_or_equiv
   _atom_site_type_symbol
   C1         1.0     0.000825      0.998800      0.170569     Biso  1.000000 C
   C2         1.0     0.113617      0.056463      0.170115     Biso  1.000000 C
   C3         1.0     0.004130      0.166736      0.169866     Biso  1.000000 C
   C4         1.0     0.118314      0.225292      0.171880     Biso  1.000000 C
   C5         1.0     0.001633      0.332425      0.165427     Biso  1.000000 C
   C6         1.0     0.113022      0.389646      0.164997     Biso  1.000000 C
   C7         1.0     0.999212      0.498897      0.163326     Biso  1.000000 C
   C8         1.0     0.109638      0.555821      0.160729     Biso  1.000000 C
   C9         1.0     0.999655      0.665503      0.164964     Biso  1.000000 C
   C10        1.0     0.110574      0.722636      0.161704     Biso  1.000000 C
   C11        1.0     0.000009      0.832237      0.168489     Biso  1.000000 C
   C12        1.0     0.111192      0.889022      0.165833     Biso  1.000000 C
   C13        1.0     0.167961      0.000339      0.167106     Biso  1.000000 C
   C14        1.0     0.279676      0.056438      0.164927     Biso  1.000000 C
   C15        1.0     0.174595      0.169653      0.172327     Biso  1.000000 C
   C16        1.0     0.173240      0.337774      0.169706     Biso  1.000000 C
   C17        1.0     0.164783      0.500805      0.161223     Biso  1.000000 C
   C18        1.0     0.274534      0.558729      0.159485     Biso  1.000000 C
   C19        1.0     0.165324      0.667262      0.159143     Biso  1.000000 C
   C20        1.0     0.275918      0.724034      0.157030     Biso  1.000000 C
   C21        1.0     0.166573      0.833647      0.162139     Biso  1.000000 C
   C22        1.0     0.277521      0.889749      0.159979     Biso  1.000000 C
   C23        1.0     0.334566      0.000922      0.161520     Biso  1.000000 C
   C24        1.0     0.445334      0.056517      0.161328     Biso  1.000000 C
   C25        1.0     0.335776      0.167371      0.168313     Biso  1.000000 C
   C26        1.0     0.448086      0.224469      0.168052     Biso  1.000000 C
   C27        1.0     0.329131      0.504428      0.164782     Biso  1.000000 C
   C28        1.0     0.438672      0.560434      0.166936     Biso  1.000000 C
   C29        1.0     0.330491      0.669033      0.157057     Biso  1.000000 C
   C30        1.0     0.441003      0.725125      0.158692     Biso  1.000000 C
   C31        1.0     0.332680      0.834812      0.157703     Biso  1.000000 C
   C32        1.0     0.444153      0.890648      0.158165     Biso  1.000000 C
   C33        1.0     0.500943      0.001118      0.160138     Biso  1.000000 C
   C34        1.0     0.612051      0.054834      0.162195     Biso  1.000000 C
   C35        1.0     0.501269      0.167594      0.164303     Biso  1.000000 C
   C36        1.0     0.612551      0.222798      0.165072     Biso  1.000000 C
   C37        1.0     0.610914      0.391804      0.171079     Biso  1.000000 C
   C38        1.0     0.494786      0.670429      0.163175     Biso  1.000000 C
   C39        1.0     0.498978      0.835203      0.159116     Biso  1.000000 C
   C40        1.0     0.609865      0.886569      0.162578     Biso  1.000000 C
   C41        1.0     0.667014      0.998112      0.163388     Biso  1.000000 C
   C42        1.0     0.778604      0.052637      0.166143     Biso  1.000000 C
   C43        1.0     0.667948      0.166484      0.163965     Biso  1.000000 C
   C44        1.0     0.779160      0.220699      0.165139     Biso  1.000000 C
   C45        1.0     0.666734      0.334066      0.167412     Biso  1.000000 C
   C46        1.0     0.777939      0.387599      0.166729     Biso  1.000000 C
   C47        1.0     0.776749      0.552030      0.170938     Biso  1.000000 C
   C48        1.0     0.661265      0.825554      0.166222     Biso  1.000000 C
   C49        1.0     0.774232      0.880801      0.169159     Biso  1.000000 C
   C50        1.0     0.832504      0.994861      0.168530     Biso  1.000000 C
   C51        1.0     0.945280      0.054015      0.170150     Biso  1.000000 C
   C52        1.0     0.835036      0.164338      0.166107     Biso  1.000000 C
   C53        1.0     0.946925      0.220917      0.167375     Biso  1.000000 C
   C54        1.0     0.833796      0.331862      0.165310     Biso  1.000000 C
   C55        1.0     0.945329      0.387749      0.164558     Biso  1.000000 C
   C56        1.0     0.833200      0.498709      0.167951     Biso  1.000000 C
   C57        1.0     0.944229      0.554727      0.165230     Biso  1.000000 C
   C58        1.0     0.833574      0.664293      0.170979     Biso  1.000000 C
   C59        1.0     0.944158      0.720449      0.168215     Biso  1.000000 C
   C60        1.0     0.830101      0.824790      0.171056     Biso  1.000000 C
   C61        1.0     0.943273      0.886023      0.170392     Biso  1.000000 C
   N1         1.0     0.283047      0.222076      0.173946     Biso  1.000000 N
   N2         1.0     0.281176      0.397371      0.171847     Biso  1.000000 N
   N3         1.0     0.501422      0.334038      0.173319     Biso  1.000000 N
   N4         1.0     0.492591      0.509124      0.175164     Biso  1.000000 N
   N5         1.0     0.602099      0.717632      0.166957     Biso  1.000000 N
   N6         1.0     0.667323      0.500019      0.172883     Biso  1.000000 N
   N7         1.0     0.777562      0.715766      0.172497     Biso  1.000000 N
   Co1        1.0     0.633280      0.608776      0.173203     Biso  1.000000 Co
   Cr1        1.0     0.394830      0.369905      0.212044     Biso  1.000000 Cr
   O1         1.0     0.392775      0.369954      0.318854     Biso  1.000000 O
