#======================================================================

# CRYSTAL DATA

#----------------------------------------------------------------------

data_VESTA_phase_1


_chemical_name_common                  'POSCAR\(15)                           '
_cell_length_a                         14.76000
_cell_length_b                         14.76000
_cell_length_c                         15.00000
_cell_angle_alpha                      90
_cell_angle_beta                       90
_cell_angle_gamma                      120
_space_group_name_H-M_alt              'P 1'
_space_group_IT_number                 1

loop_
_space_group_symop_operation_xyz
   'x, y, z'

loop_
   _atom_site_label
   _atom_site_occupancy
   _atom_site_fract_x
   _atom_site_fract_y
   _atom_site_fract_z
   _atom_site_adp_type
   _atom_site_B_iso_or_equiv
   _atom_site_type_symbol
   C1         1.0     0.000344      0.998318      0.174144     Biso  1.000000 C
   C2         1.0     0.112692      0.055411      0.174301     Biso  1.000000 C
   C3         1.0     0.004083      0.166694      0.172500     Biso  1.000000 C
   C4         1.0     0.117792      0.225066      0.174800     Biso  1.000000 C
   C5         1.0     0.000916      0.332390      0.162857     Biso  1.000000 C
   C6         1.0     0.112146      0.389778      0.161216     Biso  1.000000 C
   C7         1.0     0.998821      0.498960      0.156285     Biso  1.000000 C
   C8         1.0     0.109142      0.555697      0.151093     Biso  1.000000 C
   C9         1.0     0.999298      0.665458      0.158658     Biso  1.000000 C
   C10        1.0     0.110217      0.722339      0.153849     Biso  1.000000 C
   C11        1.0    -0.000308      0.831856      0.167467     Biso  1.000000 C
   C12        1.0     0.111087      0.888593      0.164618     Biso  1.000000 C
   C13        1.0     0.167596      0.999578      0.169579     Biso  1.000000 C
   C14        1.0     0.279478      0.055274      0.168625     Biso  1.000000 C
   C15        1.0     0.173126      0.167968      0.177602     Biso  1.000000 C
   C16        1.0     0.171977      0.338391      0.170353     Biso  1.000000 C
   C17        1.0     0.164382      0.500729      0.153162     Biso  1.000000 C
   C18        1.0     0.274597      0.558955      0.151550     Biso  1.000000 C
   C19        1.0     0.165030      0.667219      0.148771     Biso  1.000000 C
   C20        1.0     0.275850      0.724076      0.146376     Biso  1.000000 C
   C21        1.0     0.166349      0.833385      0.157167     Biso  1.000000 C
   C22        1.0     0.277334      0.889384      0.155027     Biso  1.000000 C
   C23        1.0     0.334449      0.000045      0.161363     Biso  1.000000 C
   C24        1.0     0.445265      0.055590      0.162087     Biso  1.000000 C
   C25        1.0     0.335194      0.165602      0.175522     Biso  1.000000 C
   C26        1.0     0.448686      0.222859      0.175732     Biso  1.000000 C
   C27        1.0     0.328438      0.505153      0.163467     Biso  1.000000 C
   C28        1.0     0.439645      0.562817      0.169572     Biso  1.000000 C
   C29        1.0     0.330900      0.669670      0.147046     Biso  1.000000 C
   C30        1.0     0.441130      0.726048      0.151504     Biso  1.000000 C
   C31        1.0     0.332759      0.834790      0.149548     Biso  1.000000 C
   C32        1.0     0.444119      0.890636      0.152204     Biso  1.000000 C
   C33        1.0     0.501055      0.000848      0.158155     Biso  1.000000 C
   C34        1.0     0.612081      0.054537      0.162021     Biso  1.000000 C
   C35        1.0     0.501464      0.166300      0.168691     Biso  1.000000 C
   C36        1.0     0.612814      0.221899      0.168138     Biso  1.000000 C
   C37        1.0     0.611717      0.389973      0.176939     Biso  1.000000 C
   C38        1.0     0.495471      0.671973      0.161672     Biso  1.000000 C
   C39        1.0     0.499184      0.835600      0.153546     Biso  1.000000 C
   C40        1.0     0.610029      0.886898      0.161470     Biso  1.000000 C
   C41        1.0     0.667233      0.998149      0.163571     Biso  1.000000 C
   C42        1.0     0.778442      0.052401      0.168265     Biso  1.000000 C
   C43        1.0     0.668127      0.165926      0.165223     Biso  1.000000 C
   C44        1.0     0.779278      0.220469      0.165731     Biso  1.000000 C
   C45        1.0     0.667750      0.333243      0.170442     Biso  1.000000 C
   C46        1.0     0.778219      0.387412      0.166440     Biso  1.000000 C
   C47        1.0     0.775651      0.551617      0.171211     Biso  1.000000 C
   C48        1.0     0.661586      0.826502      0.168849     Biso  1.000000 C
   C49        1.0     0.774049      0.880955      0.173718     Biso  1.000000 C
   C50        1.0     0.832379      0.994881      0.172300     Biso  1.000000 C
   C51        1.0     0.945094      0.053895      0.174012     Biso  1.000000 C
   C52        1.0     0.835125      0.164286      0.167345     Biso  1.000000 C
   C53        1.0     0.946676      0.220927      0.168041     Biso  1.000000 C
   C54        1.0     0.833836      0.331618      0.164055     Biso  1.000000 C
   C55        1.0     0.944943      0.387649      0.160513     Biso  1.000000 C
   C56        1.0     0.832822      0.498683      0.165504     Biso  1.000000 C
   C57        1.0     0.943663      0.554650      0.159285     Biso  1.000000 C
   C58        1.0     0.833167      0.664553      0.170596     Biso  1.000000 C
   C59        1.0     0.943940      0.720325      0.164754     Biso  1.000000 C
   C60        1.0     0.830359      0.824805      0.175193     Biso  1.000000 C
   C61        1.0     0.943329      0.885841      0.172640     Biso  1.000000 C
   N1         1.0     0.280867      0.218787      0.181290     Biso  1.000000 N
   N2         1.0     0.278850      0.398684      0.174647     Biso  1.000000 N
   N3         1.0     0.504319      0.332142      0.182128     Biso  1.000000 N
   N4         1.0     0.493358      0.513664      0.186771     Biso  1.000000 N
   N5         1.0     0.601661      0.718870      0.169995     Biso  1.000000 N
   N6         1.0     0.667176      0.498683      0.177399     Biso  1.000000 N
   N7         1.0     0.779377      0.717233      0.176586     Biso  1.000000 N
   Co1        1.0     0.632580      0.610433      0.206461     Biso  1.000000 Co
   Cr1        1.0     0.394139      0.368505      0.193292     Biso  1.000000 Cr
   O1         1.0     0.643716      0.619888      0.317915     Biso  1.000000 O
