#======================================================================

# CRYSTAL DATA

#----------------------------------------------------------------------

data_VESTA_phase_1


_chemical_name_common                  'POSCAR\(15)                           '
_cell_length_a                         14.76000
_cell_length_b                         14.76000
_cell_length_c                         15.00000
_cell_angle_alpha                      90
_cell_angle_beta                       90
_cell_angle_gamma                      120
_space_group_name_H-M_alt              'P 1'
_space_group_IT_number                 1

loop_
_space_group_symop_operation_xyz
   'x, y, z'

loop_
   _atom_site_label
   _atom_site_occupancy
   _atom_site_fract_x
   _atom_site_fract_y
   _atom_site_fract_z
   _atom_site_adp_type
   _atom_site_B_iso_or_equiv
   _atom_site_type_symbol
   C1         1.0     0.000498      0.997748      0.167179     Biso  1.000000 C
   C2         1.0     0.112876      0.054971      0.166848     Biso  1.000000 C
   C3         1.0     0.004379      0.166198      0.167336     Biso  1.000000 C
   C4         1.0     0.118009      0.224630      0.166671     Biso  1.000000 C
   C5         1.0     0.001030      0.331923      0.164863     Biso  1.000000 C
   C6         1.0     0.112072      0.389455      0.164527     Biso  1.000000 C
   C7         1.0     0.999014      0.498516      0.162423     Biso  1.000000 C
   C8         1.0     0.109393      0.555578      0.162726     Biso  1.000000 C
   C9         1.0     0.999522      0.664968      0.161247     Biso  1.000000 C
   C10        1.0     0.110399      0.721985      0.161967     Biso  1.000000 C
   C11        1.0    -0.000223      0.831369      0.163069     Biso  1.000000 C
   C12        1.0     0.111093      0.888155      0.163534     Biso  1.000000 C
   C13        1.0     0.167756      0.999214      0.165742     Biso  1.000000 C
   C14        1.0     0.279652      0.054968      0.167179     Biso  1.000000 C
   C15        1.0     0.173369      0.167531      0.167555     Biso  1.000000 C
   C16        1.0     0.171923      0.337850      0.165258     Biso  1.000000 C
   C17        1.0     0.164445      0.500645      0.163935     Biso  1.000000 C
   C18        1.0     0.274471      0.559056      0.165178     Biso  1.000000 C
   C19        1.0     0.165180      0.666854      0.162758     Biso  1.000000 C
   C20        1.0     0.275784      0.723833      0.164945     Biso  1.000000 C
   C21        1.0     0.166510      0.832947      0.163169     Biso  1.000000 C
   C22        1.0     0.277463      0.888995      0.165008     Biso  1.000000 C
   C23        1.0     0.334636     -0.000322      0.166731     Biso  1.000000 C
   C24        1.0     0.445453      0.055196      0.167919     Biso  1.000000 C
   C25        1.0     0.335391      0.165374      0.169230     Biso  1.000000 C
   C26        1.0     0.449241      0.222938      0.170453     Biso  1.000000 C
   C27        1.0     0.328676      0.504842      0.164638     Biso  1.000000 C
   C28        1.0     0.440182      0.562449      0.165088     Biso  1.000000 C
   C29        1.0     0.330604      0.669543      0.166648     Biso  1.000000 C
   C30        1.0     0.440810      0.726017      0.170005     Biso  1.000000 C
   C31        1.0     0.332818      0.834395      0.165914     Biso  1.000000 C
   C32        1.0     0.444063      0.890279      0.168173     Biso  1.000000 C
   C33        1.0     0.501182      0.000490      0.168213     Biso  1.000000 C
   C34        1.0     0.612332      0.054146      0.168607     Biso  1.000000 C
   C35        1.0     0.501865      0.166051      0.169186     Biso  1.000000 C
   C36        1.0     0.613193      0.221524      0.168303     Biso  1.000000 C
   C37        1.0     0.612360      0.389708      0.170163     Biso  1.000000 C
   C38        1.0     0.495164      0.671878      0.171197     Biso  1.000000 C
   C39        1.0     0.499077      0.835389      0.170431     Biso  1.000000 C
   C40        1.0     0.610092      0.886532      0.171523     Biso  1.000000 C
   C41        1.0     0.667401      0.997764      0.169917     Biso  1.000000 C
   C42        1.0     0.778739      0.051945      0.169628     Biso  1.000000 C
   C43        1.0     0.668471      0.165470      0.167888     Biso  1.000000 C
   C44        1.0     0.779553      0.219947      0.166864     Biso  1.000000 C
   C45        1.0     0.668134      0.332782      0.167936     Biso  1.000000 C
   C46        1.0     0.778604      0.386876      0.165561     Biso  1.000000 C
   C47        1.0     0.776045      0.551005      0.165350     Biso  1.000000 C
   C48        1.0     0.661680      0.825962      0.173668     Biso  1.000000 C
   C49        1.0     0.774412      0.880370      0.171391     Biso  1.000000 C
   C50        1.0     0.832680      0.994319      0.170144     Biso  1.000000 C
   C51        1.0     0.945382      0.053346      0.168347     Biso  1.000000 C
   C52        1.0     0.835334      0.163729      0.167668     Biso  1.000000 C
   C53        1.0     0.946871      0.220397      0.166648     Biso  1.000000 C
   C54        1.0     0.834131      0.331059      0.165184     Biso  1.000000 C
   C55        1.0     0.945141      0.387240      0.163959     Biso  1.000000 C
   C56        1.0     0.833159      0.497994      0.163676     Biso  1.000000 C
   C57        1.0     0.943994      0.554181      0.161795     Biso  1.000000 C
   C58        1.0     0.833312      0.663943      0.163374     Biso  1.000000 C
   C59        1.0     0.944052      0.719837      0.161815     Biso  1.000000 C
   C60        1.0     0.830396      0.824196      0.167452     Biso  1.000000 C
   C61        1.0     0.943315      0.885287      0.165709     Biso  1.000000 C
   N1         1.0     0.281047      0.218452      0.168883     Biso  1.000000 N
   N2         1.0     0.278762      0.397833      0.164478     Biso  1.000000 N
   N3         1.0     0.504803      0.332119      0.171740     Biso  1.000000 N
   N4         1.0     0.497366      0.514990      0.160911     Biso  1.000000 N
   N5         1.0     0.601661      0.718317      0.175382     Biso  1.000000 N
   N6         1.0     0.667804      0.498309      0.169647     Biso  1.000000 N
   N7         1.0     0.778775      0.716183      0.165062     Biso  1.000000 N
   Co1        1.0     0.632972      0.608411      0.186045     Biso  1.000000 Co
   Cr1        1.0     0.394734      0.368526      0.167918     Biso  1.000000 Cr
   O1         1.0     0.640348      0.603902      0.309230     Biso  1.000000 O
   H1         1.0     0.623459      0.654587      0.334700     Biso  1.000000 H
