#======================================================================

# CRYSTAL DATA

#----------------------------------------------------------------------

data_VESTA_phase_1


_chemical_name_common                  'CONTCAR\(43)                          '
_cell_length_a                         14.76000
_cell_length_b                         14.76000
_cell_length_c                         15.00000
_cell_angle_alpha                      90
_cell_angle_beta                       90
_cell_angle_gamma                      120
_space_group_name_H-M_alt              'P 1'
_space_group_IT_number                 1

loop_
_space_group_symop_operation_xyz
   'x, y, z'

loop_
   _atom_site_label
   _atom_site_occupancy
   _atom_site_fract_x
   _atom_site_fract_y
   _atom_site_fract_z
   _atom_site_adp_type
   _atom_site_B_iso_or_equiv
   _atom_site_type_symbol
   C1         1.0    -0.000087      0.995516      0.170867     Biso  1.000000 C
   C2         1.0     0.112362      0.052841      0.168901     Biso  1.000000 C
   C3         1.0     0.003520      0.163890      0.173587     Biso  1.000000 C
   C4         1.0     0.117148      0.222271      0.176429     Biso  1.000000 C
   C5         1.0     0.000312      0.329633      0.165238     Biso  1.000000 C
   C6         1.0     0.111510      0.387287      0.166966     Biso  1.000000 C
   C7         1.0     0.998373      0.496234      0.155220     Biso  1.000000 C
   C8         1.0     0.108830      0.553224      0.153277     Biso  1.000000 C
   C9         1.0     0.998936      0.662904      0.152582     Biso  1.000000 C
   C10        1.0     0.109932      0.719950      0.148603     Biso  1.000000 C
   C11        1.0     0.999326      0.829283      0.160786     Biso  1.000000 C
   C12        1.0     0.110719      0.886275      0.156161     Biso  1.000000 C
   C13        1.0     0.167291      0.997265      0.161220     Biso  1.000000 C
   C14        1.0     0.279219      0.053199      0.159364     Biso  1.000000 C
   C15        1.0     0.172689      0.165234      0.174770     Biso  1.000000 C
   C16        1.0     0.171055      0.335713      0.176283     Biso  1.000000 C
   C17        1.0     0.163897      0.498333      0.160041     Biso  1.000000 C
   C18        1.0     0.274073      0.556664      0.162277     Biso  1.000000 C
   C19        1.0     0.164715      0.664640      0.148578     Biso  1.000000 C
   C20        1.0     0.275611      0.721569      0.148679     Biso  1.000000 C
   C21        1.0     0.166028      0.831085      0.149447     Biso  1.000000 C
   C22        1.0     0.277098      0.887187      0.148163     Biso  1.000000 C
   C23        1.0     0.334192      0.997939      0.152517     Biso  1.000000 C
   C24        1.0     0.445069      0.053493      0.154167     Biso  1.000000 C
   C25        1.0     0.334828      0.163360      0.167625     Biso  1.000000 C
   C26        1.0     0.448358      0.220938      0.167471     Biso  1.000000 C
   C27        1.0     0.327446      0.502806      0.176042     Biso  1.000000 C
   C28        1.0     0.439033      0.560354      0.181898     Biso  1.000000 C
   C29        1.0     0.330416      0.667266      0.155703     Biso  1.000000 C
   C30        1.0     0.440556      0.723715      0.160824     Biso  1.000000 C
   C31        1.0     0.332510      0.832361      0.147529     Biso  1.000000 C
   C32        1.0     0.443797      0.888193      0.151327     Biso  1.000000 C
   C33        1.0     0.500810      0.998602      0.153614     Biso  1.000000 C
   C34        1.0     0.611796      0.052176      0.158973     Biso  1.000000 C
   C35        1.0     0.501159      0.164321      0.160315     Biso  1.000000 C
   C36        1.0     0.612460      0.219719      0.161453     Biso  1.000000 C
   C37        1.0     0.611296      0.387895      0.171503     Biso  1.000000 C
   C38        1.0     0.494681      0.669689      0.172618     Biso  1.000000 C
   C39        1.0     0.498672      0.833115      0.157717     Biso  1.000000 C
   C40        1.0     0.609523      0.884364      0.164434     Biso  1.000000 C
   C41        1.0     0.666793      0.995648      0.163560     Biso  1.000000 C
   C42        1.0     0.777947      0.049760      0.168565     Biso  1.000000 C
   C43        1.0     0.667740      0.163551      0.160847     Biso  1.000000 C
   C44        1.0     0.778892      0.217891      0.163189     Biso  1.000000 C
   C45        1.0     0.667194      0.331125      0.164190     Biso  1.000000 C
   C46        1.0     0.777793      0.384904      0.161463     Biso  1.000000 C
   C47        1.0     0.775325      0.549028      0.165887     Biso  1.000000 C
   C48        1.0     0.661037      0.824147      0.173065     Biso  1.000000 C
   C49        1.0     0.773658      0.878290      0.175179     Biso  1.000000 C
   C50        1.0     0.831915      0.992166      0.172911     Biso  1.000000 C
   C51        1.0     0.944708      0.051078      0.173547     Biso  1.000000 C
   C52        1.0     0.834548      0.161642      0.167049     Biso  1.000000 C
   C53        1.0     0.946126      0.218183      0.169486     Biso  1.000000 C
   C54        1.0     0.833389      0.329029      0.161271     Biso  1.000000 C
   C55        1.0     0.944491      0.384988      0.160285     Biso  1.000000 C
   C56        1.0     0.832413      0.496007      0.160104     Biso  1.000000 C
   C57        1.0     0.943330      0.552070      0.154766     Biso  1.000000 C
   C58        1.0     0.832941      0.661787      0.165822     Biso  1.000000 C
   C59        1.0     0.943597      0.717797      0.158294     Biso  1.000000 C
   C60        1.0     0.830077      0.822076      0.174137     Biso  1.000000 C
   C61        1.0     0.942882      0.883009      0.168578     Biso  1.000000 C
   C62        1.0     0.643020      0.611895      0.320579     Biso  1.000000 C
   N1         1.0     0.280542      0.216205      0.176712     Biso  1.000000 N
   N2         1.0     0.277688      0.396051      0.183973     Biso  1.000000 N
   N3         1.0     0.503684      0.330081      0.176238     Biso  1.000000 N
   N4         1.0     0.494100      0.512015      0.194720     Biso  1.000000 N
   N5         1.0     0.601133      0.716266      0.177384     Biso  1.000000 N
   N6         1.0     0.667029      0.496988      0.174051     Biso  1.000000 N
   N7         1.0     0.778876      0.714037      0.175632     Biso  1.000000 N
   Co1        1.0     0.635130      0.609457      0.204414     Biso  1.000000 Co
   Cr1        1.0     0.393187      0.365371      0.194671     Biso  1.000000 Cr
   O1         1.0     0.640000      0.610777      0.398196     Biso  1.000000 O
