#======================================================================

# CRYSTAL DATA

#----------------------------------------------------------------------

data_VESTA_phase_1


_chemical_name_common                  'contcar\(64)                          '
_cell_length_a                         14.76000
_cell_length_b                         14.76000
_cell_length_c                         15.00000
_cell_angle_alpha                      90
_cell_angle_beta                       90
_cell_angle_gamma                      120
_space_group_name_H-M_alt              'P 1'
_space_group_IT_number                 1

loop_
_space_group_symop_operation_xyz
   'x, y, z'

loop_
   _atom_site_label
   _atom_site_occupancy
   _atom_site_fract_x
   _atom_site_fract_y
   _atom_site_fract_z
   _atom_site_adp_type
   _atom_site_B_iso_or_equiv
   _atom_site_type_symbol
   C1         1.0    -0.000095      0.998447      0.173980     Biso  1.000000 C
   C2         1.0     0.112317      0.055614      0.173288     Biso  1.000000 C
   C3         1.0     0.003484      0.166884      0.172906     Biso  1.000000 C
   C4         1.0     0.117189      0.225225      0.176245     Biso  1.000000 C
   C5         1.0     0.000348      0.332626      0.163374     Biso  1.000000 C
   C6         1.0     0.111452      0.390056      0.164333     Biso  1.000000 C
   C7         1.0     0.998468      0.499160      0.155683     Biso  1.000000 C
   C8         1.0     0.108823      0.555978      0.151972     Biso  1.000000 C
   C9         1.0     0.999205      0.665818      0.157484     Biso  1.000000 C
   C10        1.0     0.110082      0.722748      0.152472     Biso  1.000000 C
   C11        1.0     0.999702      0.832260      0.167056     Biso  1.000000 C
   C12        1.0     0.110941      0.888981      0.162944     Biso  1.000000 C
   C13        1.0     0.167267     -0.000074      0.167512     Biso  1.000000 C
   C14        1.0     0.279175      0.055696      0.165149     Biso  1.000000 C
   C15        1.0     0.172570      0.168087      0.177190     Biso  1.000000 C
   C16        1.0     0.171004      0.338509      0.174299     Biso  1.000000 C
   C17        1.0     0.163891      0.501053      0.156701     Biso  1.000000 C
   C18        1.0     0.274100      0.559308      0.157341     Biso  1.000000 C
   C19        1.0     0.164777      0.667474      0.148685     Biso  1.000000 C
   C20        1.0     0.275556      0.724274      0.146655     Biso  1.000000 C
   C21        1.0     0.166158      0.833748      0.155030     Biso  1.000000 C
   C22        1.0     0.277107      0.889735      0.152273     Biso  1.000000 C
   C23        1.0     0.334109      0.000461      0.157614     Biso  1.000000 C
   C24        1.0     0.444947      0.055959      0.157430     Biso  1.000000 C
   C25        1.0     0.334773      0.165939      0.171945     Biso  1.000000 C
   C26        1.0     0.448230      0.223496      0.170662     Biso  1.000000 C
   C27        1.0     0.327622      0.505621      0.171523     Biso  1.000000 C
   C28        1.0     0.438718      0.562945      0.178117     Biso  1.000000 C
   C29        1.0     0.330368      0.669730      0.150208     Biso  1.000000 C
   C30        1.0     0.440628      0.725884      0.153858     Biso  1.000000 C
   C31        1.0     0.332425      0.835021      0.147725     Biso  1.000000 C
   C32        1.0     0.443829      0.890715      0.149769     Biso  1.000000 C
   C33        1.0     0.500683      0.001036      0.154147     Biso  1.000000 C
   C34        1.0     0.611740      0.054826      0.158209     Biso  1.000000 C
   C35        1.0     0.501045      0.166855      0.163263     Biso  1.000000 C
   C36        1.0     0.612333      0.222457      0.162946     Biso  1.000000 C
   C37        1.0     0.611026      0.390624      0.172304     Biso  1.000000 C
   C38        1.0     0.494460      0.671541      0.165237     Biso  1.000000 C
   C39        1.0     0.498801      0.835554      0.152537     Biso  1.000000 C
   C40        1.0     0.609738      0.886991      0.159854     Biso  1.000000 C
   C41        1.0     0.666838      0.998306      0.161008     Biso  1.000000 C
   C42        1.0     0.778090      0.052676      0.166390     Biso  1.000000 C
   C43        1.0     0.667646      0.166288      0.160928     Biso  1.000000 C
   C44        1.0     0.778825      0.220726      0.162354     Biso  1.000000 C
   C45        1.0     0.667039      0.333950      0.165678     Biso  1.000000 C
   C46        1.0     0.777708      0.387759      0.162732     Biso  1.000000 C
   C47        1.0     0.775928      0.552344      0.168477     Biso  1.000000 C
   C48        1.0     0.661313      0.826629      0.167901     Biso  1.000000 C
   C49        1.0     0.773672      0.881042      0.173591     Biso  1.000000 C
   C50        1.0     0.832002      0.995186      0.171664     Biso  1.000000 C
   C51        1.0     0.944633      0.054075      0.173996     Biso  1.000000 C
   C52        1.0     0.834636      0.164550      0.165302     Biso  1.000000 C
   C53        1.0     0.946179      0.221128      0.167746     Biso  1.000000 C
   C54        1.0     0.833269      0.331911      0.161214     Biso  1.000000 C
   C55        1.0     0.944453      0.387931      0.159554     Biso  1.000000 C
   C56        1.0     0.832595      0.498928      0.162948     Biso  1.000000 C
   C57        1.0     0.943431      0.554945      0.157933     Biso  1.000000 C
   C58        1.0     0.833532      0.664759      0.170425     Biso  1.000000 C
   C59        1.0     0.944103      0.720809      0.164221     Biso  1.000000 C
   C60        1.0     0.830158      0.825129      0.176389     Biso  1.000000 C
   C61        1.0     0.943047      0.886009      0.172795     Biso  1.000000 C
   C62        1.0     0.640285      0.613359      0.316002     Biso  1.000000 C
   N1         1.0     0.280400      0.218889      0.179787     Biso  1.000000 N
   N2         1.0     0.277669      0.398884      0.181326     Biso  1.000000 N
   N3         1.0     0.503647      0.332966      0.177560     Biso  1.000000 N
   N4         1.0     0.493155      0.514472      0.197028     Biso  1.000000 N
   N5         1.0     0.601583      0.718579      0.169430     Biso  1.000000 N
   N6         1.0     0.666993      0.500438      0.172699     Biso  1.000000 N
   N7         1.0     0.778851      0.716839      0.178972     Biso  1.000000 N
   Co1        1.0     0.635212      0.612858      0.198153     Biso  1.000000 Co
   Cr1        1.0     0.392223      0.367687      0.194474     Biso  1.000000 Cr
   O1         1.0     0.562441      0.555022      0.370327     Biso  1.000000 O
   H1         1.0     0.711947      0.664177      0.354713     Biso  1.000000 H
   H2         1.0     0.501915      0.510919      0.330224     Biso  1.000000 H
