#======================================================================

# CRYSTAL DATA

#----------------------------------------------------------------------

data_VESTA_phase_1


_chemical_name_common                  'CONTCAR                               '
_cell_length_a                         14.76000
_cell_length_b                         14.76000
_cell_length_c                         15.00000
_cell_angle_alpha                      90
_cell_angle_beta                       90
_cell_angle_gamma                      120
_space_group_name_H-M_alt              'P 1'
_space_group_IT_number                 1

loop_
_space_group_symop_operation_xyz
   'x, y, z'

loop_
   _atom_site_label
   _atom_site_occupancy
   _atom_site_fract_x
   _atom_site_fract_y
   _atom_site_fract_z
   _atom_site_adp_type
   _atom_site_B_iso_or_equiv
   _atom_site_type_symbol
   C1         1.0     0.000292      0.996036      0.171270     Biso  1.000000 C
   C2         1.0     0.112881      0.053472      0.169171     Biso  1.000000 C
   C3         1.0     0.004004      0.164424      0.173980     Biso  1.000000 C
   C4         1.0     0.117796      0.222800      0.177412     Biso  1.000000 C
   C5         1.0     0.000888      0.330032      0.165761     Biso  1.000000 C
   C6         1.0     0.112156      0.387540      0.167164     Biso  1.000000 C
   C7         1.0     0.998586      0.496400      0.156687     Biso  1.000000 C
   C8         1.0     0.109070      0.553419      0.154120     Biso  1.000000 C
   C9         1.0     0.999172      0.662920      0.155394     Biso  1.000000 C
   C10        1.0     0.110062      0.720120      0.150542     Biso  1.000000 C
   C11        1.0     0.999526      0.829536      0.162618     Biso  1.000000 C
   C12        1.0     0.110751      0.886492      0.157553     Biso  1.000000 C
   C13        1.0     0.167477      0.997795      0.161447     Biso  1.000000 C
   C14        1.0     0.279289      0.054024      0.158352     Biso  1.000000 C
   C15        1.0     0.173695      0.166242      0.175204     Biso  1.000000 C
   C16        1.0     0.172229      0.336084      0.176599     Biso  1.000000 C
   C17        1.0     0.164293      0.498440      0.160097     Biso  1.000000 C
   C18        1.0     0.274284      0.556449      0.161214     Biso  1.000000 C
   C19        1.0     0.164848      0.664717      0.149537     Biso  1.000000 C
   C20        1.0     0.275759      0.721554      0.149014     Biso  1.000000 C
   C21        1.0     0.166126      0.831277      0.150911     Biso  1.000000 C
   C22        1.0     0.277292      0.887491      0.148767     Biso  1.000000 C
   C23        1.0     0.334235      0.998585      0.152030     Biso  1.000000 C
   C24        1.0     0.445069      0.054242      0.153438     Biso  1.000000 C
   C25        1.0     0.334935      0.164582      0.165797     Biso  1.000000 C
   C26        1.0     0.448377      0.222397      0.165108     Biso  1.000000 C
   C27        1.0     0.328133      0.502244      0.174044     Biso  1.000000 C
   C28        1.0     0.439101      0.559478      0.178592     Biso  1.000000 C
   C29        1.0     0.330211      0.666831      0.154853     Biso  1.000000 C
   C30        1.0     0.440872      0.723446      0.159414     Biso  1.000000 C
   C31        1.0     0.332596      0.832580      0.148034     Biso  1.000000 C
   C32        1.0     0.443993      0.888551      0.151387     Biso  1.000000 C
   C33        1.0     0.500770      0.999091      0.153482     Biso  1.000000 C
   C34        1.0     0.611832      0.052639      0.158824     Biso  1.000000 C
   C35        1.0     0.501070      0.165281      0.158849     Biso  1.000000 C
   C36        1.0     0.612327      0.220405      0.160883     Biso  1.000000 C
   C37        1.0     0.610514      0.388627      0.170691     Biso  1.000000 C
   C38        1.0     0.494531      0.669468      0.170082     Biso  1.000000 C
   C39        1.0     0.498863      0.833342      0.157067     Biso  1.000000 C
   C40        1.0     0.609596      0.884514      0.163428     Biso  1.000000 C
   C41        1.0     0.666899      0.996092      0.163203     Biso  1.000000 C
   C42        1.0     0.778174      0.050290      0.168054     Biso  1.000000 C
   C43        1.0     0.667750      0.164096      0.160742     Biso  1.000000 C
   C44        1.0     0.778878      0.218252      0.163407     Biso  1.000000 C
   C45        1.0     0.666735      0.331681      0.163975     Biso  1.000000 C
   C46        1.0     0.777633      0.385148      0.162449     Biso  1.000000 C
   C47        1.0     0.775887      0.549313      0.168155     Biso  1.000000 C
   C48        1.0     0.661086      0.824084      0.170637     Biso  1.000000 C
   C49        1.0     0.773946      0.878711      0.172720     Biso  1.000000 C
   C50        1.0     0.832202      0.992559      0.171773     Biso  1.000000 C
   C51        1.0     0.945013      0.051498      0.173346     Biso  1.000000 C
   C52        1.0     0.834780      0.162088      0.167068     Biso  1.000000 C
   C53        1.0     0.946541      0.218605      0.169757     Biso  1.000000 C
   C54        1.0     0.833411      0.329420      0.162065     Biso  1.000000 C
   C55        1.0     0.944743      0.385290      0.161194     Biso  1.000000 C
   C56        1.0     0.832578      0.496272      0.162289     Biso  1.000000 C
   C57        1.0     0.943585      0.552252      0.157137     Biso  1.000000 C
   C58        1.0     0.833324      0.661925      0.167967     Biso  1.000000 C
   C59        1.0     0.943652      0.717818      0.161198     Biso  1.000000 C
   C60        1.0     0.830019      0.822365      0.172802     Biso  1.000000 C
   C61        1.0     0.942880      0.883287      0.169410     Biso  1.000000 C
   C62        1.0     0.394761      0.360575      0.323884     Biso  1.000000 C
   N1         1.0     0.281527      0.217675      0.176583     Biso  1.000000 N
   N2         1.0     0.279021      0.395967      0.183218     Biso  1.000000 N
   N3         1.0     0.502513      0.330972      0.174235     Biso  1.000000 N
   N4         1.0     0.494708      0.511787      0.191260     Biso  1.000000 N
   N5         1.0     0.601497      0.716134      0.174870     Biso  1.000000 N
   N6         1.0     0.666859      0.497647      0.174414     Biso  1.000000 N
   N7         1.0     0.777996      0.713748      0.174007     Biso  1.000000 N
   Co1        1.0     0.633338      0.607881      0.181863     Biso  1.000000 Co
   Cr1        1.0     0.392956      0.364468      0.213557     Biso  1.000000 Cr
   H1         1.0     0.396898      0.358488      0.396875     Biso  1.000000 H
