#======================================================================

# CRYSTAL DATA

#----------------------------------------------------------------------

data_VESTA_phase_1


_chemical_name_common                  'poscar\(23)                           '
_cell_length_a                         14.76000
_cell_length_b                         14.76000
_cell_length_c                         15.00000
_cell_angle_alpha                      90
_cell_angle_beta                       90
_cell_angle_gamma                      120
_space_group_name_H-M_alt              'P 1'
_space_group_IT_number                 1

loop_
_space_group_symop_operation_xyz
   'x, y, z'

loop_
   _atom_site_label
   _atom_site_occupancy
   _atom_site_fract_x
   _atom_site_fract_y
   _atom_site_fract_z
   _atom_site_adp_type
   _atom_site_B_iso_or_equiv
   _atom_site_type_symbol
   C1         1.0    -0.000813      0.997804      0.173381     Biso  1.000000 C
   C2         1.0     0.111769      0.055287      0.172890     Biso  1.000000 C
   C3         1.0     0.002755      0.166100      0.172091     Biso  1.000000 C
   C4         1.0     0.116655      0.224669      0.175157     Biso  1.000000 C
   C5         1.0    -0.000196      0.331825      0.162857     Biso  1.000000 C
   C6         1.0     0.110970      0.389260      0.162683     Biso  1.000000 C
   C7         1.0     0.997571      0.498284      0.157382     Biso  1.000000 C
   C8         1.0     0.107946      0.555194      0.153586     Biso  1.000000 C
   C9         1.0     0.998321      0.664879      0.160288     Biso  1.000000 C
   C10        1.0     0.109133      0.721956      0.155184     Biso  1.000000 C
   C11        1.0    -0.001246      0.831492      0.168296     Biso  1.000000 C
   C12        1.0     0.110037      0.888386      0.164261     Biso  1.000000 C
   C13        1.0     0.166646     -0.000433      0.167621     Biso  1.000000 C
   C14        1.0     0.278563      0.055601      0.164829     Biso  1.000000 C
   C15        1.0     0.172393      0.168063      0.176442     Biso  1.000000 C
   C16        1.0     0.170946      0.337804      0.171637     Biso  1.000000 C
   C17        1.0     0.162997      0.500175      0.156140     Biso  1.000000 C
   C18        1.0     0.273087      0.558406      0.155421     Biso  1.000000 C
   C19        1.0     0.163851      0.666624      0.150993     Biso  1.000000 C
   C20        1.0     0.274620      0.723559      0.148770     Biso  1.000000 C
   C21        1.0     0.165314      0.833056      0.157206     Biso  1.000000 C
   C22        1.0     0.276257      0.889171      0.154119     Biso  1.000000 C
   C23        1.0     0.333356      0.000104      0.158186     Biso  1.000000 C
   C24        1.0     0.444161      0.055635      0.158127     Biso  1.000000 C
   C25        1.0     0.334277      0.166070      0.170961     Biso  1.000000 C
   C26        1.0     0.447542      0.223561      0.169623     Biso  1.000000 C
   C27        1.0     0.327131      0.504446      0.166136     Biso  1.000000 C
   C28        1.0     0.437356      0.561213      0.170225     Biso  1.000000 C
   C29        1.0     0.329371      0.668828      0.150737     Biso  1.000000 C
   C30        1.0     0.439786      0.725074      0.154655     Biso  1.000000 C
   C31        1.0     0.331521      0.834316      0.150086     Biso  1.000000 C
   C32        1.0     0.442940      0.890097      0.152051     Biso  1.000000 C
   C33        1.0     0.499839      0.000487      0.155713     Biso  1.000000 C
   C34        1.0     0.610825      0.054058      0.159280     Biso  1.000000 C
   C35        1.0     0.500268      0.166572      0.163157     Biso  1.000000 C
   C36        1.0     0.611528      0.221836      0.163315     Biso  1.000000 C
   C37        1.0     0.610050      0.390038      0.172932     Biso  1.000000 C
   C38        1.0     0.493368      0.670537      0.163711     Biso  1.000000 C
   C39        1.0     0.497818      0.834897      0.154674     Biso  1.000000 C
   C40        1.0     0.608625      0.885973      0.161001     Biso  1.000000 C
   C41        1.0     0.665841      0.997387      0.161818     Biso  1.000000 C
   C42        1.0     0.777131      0.051787      0.166344     Biso  1.000000 C
   C43        1.0     0.666823      0.165535      0.161607     Biso  1.000000 C
   C44        1.0     0.777918      0.219918      0.162881     Biso  1.000000 C
   C45        1.0     0.666125      0.333163      0.166170     Biso  1.000000 C
   C46        1.0     0.776855      0.386888      0.164011     Biso  1.000000 C
   C47        1.0     0.775182      0.551177      0.171386     Biso  1.000000 C
   C48        1.0     0.660043      0.825250      0.167777     Biso  1.000000 C
   C49        1.0     0.772707      0.880102      0.171992     Biso  1.000000 C
   C50        1.0     0.830986      0.994037      0.170662     Biso  1.000000 C
   C51        1.0     0.943814      0.053278      0.173001     Biso  1.000000 C
   C52        1.0     0.833748      0.163616      0.165292     Biso  1.000000 C
   C53        1.0     0.945430      0.220326      0.167174     Biso  1.000000 C
   C54        1.0     0.832474      0.331091      0.162097     Biso  1.000000 C
   C55        1.0     0.943724      0.387120      0.160273     Biso  1.000000 C
   C56        1.0     0.831772      0.498085      0.165086     Biso  1.000000 C
   C57        1.0     0.942735      0.554176      0.160256     Biso  1.000000 C
   C58        1.0     0.832548      0.663824      0.172006     Biso  1.000000 C
   C59        1.0     0.942939      0.719813      0.166638     Biso  1.000000 C
   C60        1.0     0.828919      0.823942      0.174460     Biso  1.000000 C
   C61        1.0     0.941958      0.885119      0.172648     Biso  1.000000 C
   C62        1.0     0.405682      0.385410      0.325789     Biso  1.000000 C
   N1         1.0     0.280548      0.219581      0.178944     Biso  1.000000 N
   N2         1.0     0.277898      0.397738      0.176825     Biso  1.000000 N
   N3         1.0     0.502111      0.332569      0.177113     Biso  1.000000 N
   N4         1.0     0.492883      0.511984      0.183551     Biso  1.000000 N
   N5         1.0     0.600551      0.717238      0.170229     Biso  1.000000 N
   N6         1.0     0.666102      0.499332      0.176332     Biso  1.000000 N
   N7         1.0     0.777009      0.715516      0.176504     Biso  1.000000 N
   Co1        1.0     0.632239      0.609306      0.179320     Biso  1.000000 Co
   Cr1        1.0     0.392951      0.369338      0.203064     Biso  1.000000 Cr
   O1         1.0     0.481721      0.462345      0.374199     Biso  1.000000 O
   H1         1.0     0.345142      0.326939      0.370591     Biso  1.000000 H
   H2         1.0     0.531843      0.514402      0.331362     Biso  1.000000 H
