#======================================================================

# CRYSTAL DATA

#----------------------------------------------------------------------

data_VESTA_phase_1


_chemical_name_common                  'CONTCAR\(43)                          '
_cell_length_a                         14.76000
_cell_length_b                         14.76000
_cell_length_c                         15.00000
_cell_angle_alpha                      90
_cell_angle_beta                       90
_cell_angle_gamma                      120
_space_group_name_H-M_alt              'P 1'
_space_group_IT_number                 1

loop_
_space_group_symop_operation_xyz
   'x, y, z'

loop_
   _atom_site_label
   _atom_site_occupancy
   _atom_site_fract_x
   _atom_site_fract_y
   _atom_site_fract_z
   _atom_site_adp_type
   _atom_site_B_iso_or_equiv
   _atom_site_type_symbol
   C1         1.0     0.002707      0.995419      0.168538     Biso  1.000000 C
   C2         1.0     0.115125      0.052802      0.166118     Biso  1.000000 C
   C3         1.0     0.006424      0.163795      0.173761     Biso  1.000000 C
   C4         1.0     0.120156      0.222226      0.175941     Biso  1.000000 C
   C5         1.0     0.003155      0.329645      0.169511     Biso  1.000000 C
   C6         1.0     0.114120      0.387215      0.174119     Biso  1.000000 C
   C7         1.0     0.001152      0.496175      0.160663     Biso  1.000000 C
   C8         1.0     0.111446      0.553236      0.163681     Biso  1.000000 C
   C9         1.0     0.001610      0.662638      0.155194     Biso  1.000000 C
   C10        1.0     0.112568      0.719729      0.155198     Biso  1.000000 C
   C11        1.0     0.001968      0.829158      0.158888     Biso  1.000000 C
   C12        1.0     0.113345      0.886079      0.156204     Biso  1.000000 C
   C13        1.0     0.170026      0.997199      0.159458     Biso  1.000000 C
   C14        1.0     0.281955      0.053107      0.157579     Biso  1.000000 C
   C15        1.0     0.175657      0.165330      0.171166     Biso  1.000000 C
   C16        1.0     0.173870      0.335509      0.179783     Biso  1.000000 C
   C17        1.0     0.166401      0.498449      0.172004     Biso  1.000000 C
   C18        1.0     0.276316      0.556919      0.177970     Biso  1.000000 C
   C19        1.0     0.167296      0.664585      0.160022     Biso  1.000000 C
   C20        1.0     0.277943      0.721569      0.163581     Biso  1.000000 C
   C21        1.0     0.168722      0.830752      0.154110     Biso  1.000000 C
   C22        1.0     0.279712      0.886855      0.154749     Biso  1.000000 C
   C23        1.0     0.336916      0.997709      0.154779     Biso  1.000000 C
   C24        1.0     0.447711      0.053206      0.156051     Biso  1.000000 C
   C25        1.0     0.337668      0.163448      0.162316     Biso  1.000000 C
   C26        1.0     0.451368      0.221026      0.161378     Biso  1.000000 C
   C27        1.0     0.330097      0.502716      0.186514     Biso  1.000000 C
   C28        1.0     0.441691      0.560307      0.189039     Biso  1.000000 C
   C29        1.0     0.332593      0.667461      0.173373     Biso  1.000000 C
   C30        1.0     0.442862      0.724048      0.177362     Biso  1.000000 C
   C31        1.0     0.334965      0.832195      0.159358     Biso  1.000000 C
   C32        1.0     0.446219      0.888074      0.162429     Biso  1.000000 C
   C33        1.0     0.503424      0.998328      0.159352     Biso  1.000000 C
   C34        1.0     0.614489      0.051875      0.162661     Biso  1.000000 C
   C35        1.0     0.504045      0.164109      0.157862     Biso  1.000000 C
   C36        1.0     0.615386      0.219441      0.159389     Biso  1.000000 C
   C37        1.0     0.614477      0.387815      0.164615     Biso  1.000000 C
   C38        1.0     0.497111      0.670075      0.185264     Biso  1.000000 C
   C39        1.0     0.501129      0.833306      0.170675     Biso  1.000000 C
   C40        1.0     0.612114      0.884363      0.172558     Biso  1.000000 C
   C41        1.0     0.669498      0.995498      0.168314     Biso  1.000000 C
   C42        1.0     0.780860      0.049710      0.170803     Biso  1.000000 C
   C43        1.0     0.670624      0.163282      0.161411     Biso  1.000000 C
   C44        1.0     0.781724      0.217676      0.163982     Biso  1.000000 C
   C45        1.0     0.670231      0.330726      0.160374     Biso  1.000000 C
   C46        1.0     0.780750      0.384612      0.159783     Biso  1.000000 C
   C47        1.0     0.778059      0.548741      0.161137     Biso  1.000000 C
   C48        1.0     0.663811      0.823937      0.178119     Biso  1.000000 C
   C49        1.0     0.776527      0.878043      0.174993     Biso  1.000000 C
   C50        1.0     0.834795      0.991993      0.173282     Biso  1.000000 C
   C51        1.0     0.947510      0.050939      0.172480     Biso  1.000000 C
   C52        1.0     0.837480      0.161478      0.168682     Biso  1.000000 C
   C53        1.0     0.949029      0.218104      0.171331     Biso  1.000000 C
   C54        1.0     0.836315      0.328782      0.161870     Biso  1.000000 C
   C55        1.0     0.947340      0.384914      0.163799     Biso  1.000000 C
   C56        1.0     0.835252      0.495739      0.158395     Biso  1.000000 C
   C57        1.0     0.946105      0.551859      0.156952     Biso  1.000000 C
   C58        1.0     0.835446      0.661697      0.160980     Biso  1.000000 C
   C59        1.0     0.946141      0.717552      0.156961     Biso  1.000000 C
   C60        1.0     0.832607      0.821844      0.169816     Biso  1.000000 C
   C61        1.0     0.945492      0.882914      0.165333     Biso  1.000000 C
   C62        1.0     0.592405      0.610800      0.375223     Biso  1.000000 C
   N1         1.0     0.283424      0.216440      0.170107     Biso  1.000000 N
   N2         1.0     0.280531      0.395576      0.187210     Biso  1.000000 N
   N3         1.0     0.506794      0.330161      0.167204     Biso  1.000000 N
   N4         1.0     0.498231      0.512165      0.189113     Biso  1.000000 N
   N5         1.0     0.603909      0.716491      0.184024     Biso  1.000000 N
   N6         1.0     0.669894      0.496386      0.166359     Biso  1.000000 N
   N7         1.0     0.780989      0.713840      0.167440     Biso  1.000000 N
   Co1        1.0     0.637459      0.608107      0.194503     Biso  1.000000 Co
   Cr1        1.0     0.396749      0.365558      0.185191     Biso  1.000000 Cr
   O1         1.0     0.663980      0.607714      0.315663     Biso  1.000000 O
   H1         1.0     0.565221      0.665222      0.353945     Biso  1.000000 H
   H2         1.0     0.521768      0.532320      0.382530     Biso  1.000000 H
   H3         1.0     0.630270      0.636542      0.441197     Biso  1.000000 H
