#======================================================================

# CRYSTAL DATA

#----------------------------------------------------------------------

data_VESTA_phase_1


_chemical_name_common                  'CONTCAR\(2)\(2)                       '
_cell_length_a                         14.76000
_cell_length_b                         14.76000
_cell_length_c                         15.00000
_cell_angle_alpha                      90
_cell_angle_beta                       90
_cell_angle_gamma                      120
_space_group_name_H-M_alt              'P 1'
_space_group_IT_number                 1

loop_
_space_group_symop_operation_xyz
   'x, y, z'

loop_
   _atom_site_label
   _atom_site_occupancy
   _atom_site_fract_x
   _atom_site_fract_y
   _atom_site_fract_z
   _atom_site_adp_type
   _atom_site_B_iso_or_equiv
   _atom_site_type_symbol
   C1         1.0     0.000235      0.998149      0.168633     Biso  1.000000 C
   C2         1.0     0.112753      0.055496      0.167493     Biso  1.000000 C
   C3         1.0     0.003884      0.166442      0.169256     Biso  1.000000 C
   C4         1.0     0.117679      0.224933      0.171359     Biso  1.000000 C
   C5         1.0     0.000874      0.332149      0.165251     Biso  1.000000 C
   C6         1.0     0.112065      0.389565      0.165993     Biso  1.000000 C
   C7         1.0     0.998854      0.498698      0.162166     Biso  1.000000 C
   C8         1.0     0.109237      0.555712      0.160805     Biso  1.000000 C
   C9         1.0     0.999502      0.665256      0.162407     Biso  1.000000 C
   C10        1.0     0.110343      0.722317      0.159952     Biso  1.000000 C
   C11        1.0     0.999738      0.831835      0.165420     Biso  1.000000 C
   C12        1.0     0.110973      0.888589      0.162820     Biso  1.000000 C
   C13        1.0     0.167659      0.999854      0.164162     Biso  1.000000 C
   C14        1.0     0.279504      0.055800      0.162615     Biso  1.000000 C
   C15        1.0     0.173443      0.168299      0.170104     Biso  1.000000 C
   C16        1.0     0.171898      0.337921      0.171127     Biso  1.000000 C
   C17        1.0     0.164246      0.500726      0.162815     Biso  1.000000 C
   C18        1.0     0.274092      0.558907      0.162489     Biso  1.000000 C
   C19        1.0     0.165049      0.667030      0.158909     Biso  1.000000 C
   C20        1.0     0.275729      0.723912      0.157753     Biso  1.000000 C
   C21        1.0     0.166408      0.833313      0.159979     Biso  1.000000 C
   C22        1.0     0.277396      0.889429      0.158584     Biso  1.000000 C
   C23        1.0     0.334480      0.000408      0.159768     Biso  1.000000 C
   C24        1.0     0.445220      0.055970      0.159970     Biso  1.000000 C
   C25        1.0     0.335239      0.166439      0.165889     Biso  1.000000 C
   C26        1.0     0.448666      0.223917      0.165886     Biso  1.000000 C
   C27        1.0     0.328256      0.504732      0.168862     Biso  1.000000 C
   C28        1.0     0.438719      0.561685      0.170035     Biso  1.000000 C
   C29        1.0     0.330364      0.669327      0.159322     Biso  1.000000 C
   C30        1.0     0.440922      0.725751      0.160758     Biso  1.000000 C
   C31        1.0     0.332665      0.834684      0.157567     Biso  1.000000 C
   C32        1.0     0.443995      0.890581      0.158370     Biso  1.000000 C
   C33        1.0     0.500900      0.000955      0.159498     Biso  1.000000 C
   C34        1.0     0.611977      0.054611      0.161721     Biso  1.000000 C
   C35        1.0     0.501376      0.166953      0.162548     Biso  1.000000 C
   C36        1.0     0.612755      0.222369      0.163397     Biso  1.000000 C
   C37        1.0     0.611840      0.391008      0.168585     Biso  1.000000 C
   C38        1.0     0.494785      0.671420      0.165383     Biso  1.000000 C
   C39        1.0     0.498977      0.835534      0.160129     Biso  1.000000 C
   C40        1.0     0.609784      0.886657      0.163095     Biso  1.000000 C
   C41        1.0     0.666975      0.998072      0.163358     Biso  1.000000 C
   C42        1.0     0.778355      0.052359      0.165823     Biso  1.000000 C
   C43        1.0     0.668010      0.166116      0.162877     Biso  1.000000 C
   C44        1.0     0.779130      0.220372      0.164122     Biso  1.000000 C
   C45        1.0     0.667483      0.333629      0.165006     Biso  1.000000 C
   C46        1.0     0.778178      0.387278      0.164317     Biso  1.000000 C
   C47        1.0     0.776407      0.551541      0.168002     Biso  1.000000 C
   C48        1.0     0.661183      0.825863      0.166672     Biso  1.000000 C
   C49        1.0     0.774004      0.880607      0.168745     Biso  1.000000 C
   C50        1.0     0.832224      0.994522      0.167913     Biso  1.000000 C
   C51        1.0     0.944949      0.053614      0.169057     Biso  1.000000 C
   C52        1.0     0.834890      0.164049      0.165572     Biso  1.000000 C
   C53        1.0     0.946571      0.220673      0.166943     Biso  1.000000 C
   C54        1.0     0.833726      0.331463      0.163787     Biso  1.000000 C
   C55        1.0     0.944914      0.387476      0.163614     Biso  1.000000 C
   C56        1.0     0.833104      0.498426      0.164989     Biso  1.000000 C
   C57        1.0     0.944012      0.554532      0.162835     Biso  1.000000 C
   C58        1.0     0.833510      0.664084      0.168282     Biso  1.000000 C
   C59        1.0     0.943993      0.720145      0.165106     Biso  1.000000 C
   C60        1.0     0.830014      0.824495      0.169841     Biso  1.000000 C
   C61        1.0     0.942957      0.885536      0.168240     Biso  1.000000 C
   C62        1.0     0.398788      0.374011      0.329036     Biso  1.000000 C
   N1         1.0     0.281274      0.219802      0.170840     Biso  1.000000 N
   N2         1.0     0.279137      0.397896      0.175552     Biso  1.000000 N
   N3         1.0     0.503682      0.333261      0.171380     Biso  1.000000 N
   N4         1.0     0.494289      0.512454      0.177731     Biso  1.000000 N
   N5         1.0     0.601835      0.717979      0.168038     Biso  1.000000 N
   N6         1.0     0.667515      0.499626      0.170079     Biso  1.000000 N
   N7         1.0     0.777814      0.715678      0.170887     Biso  1.000000 N
   Co1        1.0     0.633676      0.610064      0.173027     Biso  1.000000 Co
   Cr1        1.0     0.395028      0.369312      0.196355     Biso  1.000000 Cr
   O1         1.0     0.440061      0.446317      0.381312     Biso  1.000000 O
   H1         1.0     0.351911      0.290801      0.355596     Biso  1.000000 H
