#======================================================================

# CRYSTAL DATA

#----------------------------------------------------------------------

data_VESTA_phase_1


_chemical_name_common                  'POSCAR\(2)(1)                         '
_cell_length_a                         14.76000
_cell_length_b                         14.76000
_cell_length_c                         15.00000
_cell_angle_alpha                      90
_cell_angle_beta                       90
_cell_angle_gamma                      120
_space_group_name_H-M_alt              'P 1'
_space_group_IT_number                 1

loop_
_space_group_symop_operation_xyz
   'x, y, z'

loop_
   _atom_site_label
   _atom_site_occupancy
   _atom_site_fract_x
   _atom_site_fract_y
   _atom_site_fract_z
   _atom_site_adp_type
   _atom_site_B_iso_or_equiv
   _atom_site_type_symbol
   C1         1.0     0.000365      0.998132      0.174570     Biso  1.000000 C
   C2         1.0     0.112773      0.055259      0.175523     Biso  1.000000 C
   C3         1.0     0.004235      0.166613      0.171361     Biso  1.000000 C
   C4         1.0     0.117921      0.225032      0.172786     Biso  1.000000 C
   C5         1.0     0.000990      0.332292      0.162623     Biso  1.000000 C
   C6         1.0     0.112059      0.389687      0.159359     Biso  1.000000 C
   C7         1.0     0.999034      0.498854      0.158730     Biso  1.000000 C
   C8         1.0     0.109210      0.555695      0.152222     Biso  1.000000 C
   C9         1.0    -0.000140      0.665448      0.163138     Biso  1.000000 C
   C10        1.0     0.110657      0.722400      0.157613     Biso  1.000000 C
   C11        1.0     0.000069      0.831859      0.170621     Biso  1.000000 C
   C12        1.0     0.111363      0.888534      0.168227     Biso  1.000000 C
   C13        1.0     0.167867     -0.000394      0.172330     Biso  1.000000 C
   C14        1.0     0.279753      0.055293      0.171697     Biso  1.000000 C
   C15        1.0     0.173206      0.167886      0.177253     Biso  1.000000 C
   C16        1.0     0.171944      0.338236      0.166410     Biso  1.000000 C
   C17        1.0     0.164294      0.500657      0.151898     Biso  1.000000 C
   C18        1.0     0.274390      0.558999      0.148708     Biso  1.000000 C
   C19        1.0     0.165226      0.667223      0.150801     Biso  1.000000 C
   C20        1.0     0.276024      0.724230      0.147266     Biso  1.000000 C
   C21        1.0     0.166722      0.833377      0.161015     Biso  1.000000 C
   C22        1.0     0.277655      0.889422      0.158472     Biso  1.000000 C
   C23        1.0     0.334705      0.000116      0.164805     Biso  1.000000 C
   C24        1.0     0.445506      0.055726      0.165101     Biso  1.000000 C
   C25        1.0     0.335415      0.165667      0.177569     Biso  1.000000 C
   C26        1.0     0.449106      0.223194      0.177728     Biso  1.000000 C
   C27        1.0     0.328348      0.505028      0.157393     Biso  1.000000 C
   C28        1.0     0.439511      0.562212      0.161771     Biso  1.000000 C
   C29        1.0     0.330848      0.669723      0.145496     Biso  1.000000 C
   C30        1.0     0.441336      0.726126      0.149177     Biso  1.000000 C
   C31        1.0     0.332954      0.834947      0.151520     Biso  1.000000 C
   C32        1.0     0.444344      0.890851      0.153468     Biso  1.000000 C
   C33        1.0     0.501246      0.000951      0.160299     Biso  1.000000 C
   C34        1.0     0.612306      0.054625      0.163499     Biso  1.000000 C
   C35        1.0     0.501726      0.166472      0.171459     Biso  1.000000 C
   C36        1.0     0.613151      0.222179      0.170618     Biso  1.000000 C
   C37        1.0     0.612209      0.390436      0.178253     Biso  1.000000 C
   C38        1.0     0.495399      0.671883      0.157039     Biso  1.000000 C
   C39        1.0     0.499376      0.835788      0.152836     Biso  1.000000 C
   C40        1.0     0.610123      0.886934      0.160246     Biso  1.000000 C
   C41        1.0     0.667329      0.998150      0.163647     Biso  1.000000 C
   C42        1.0     0.778639      0.052385      0.167947     Biso  1.000000 C
   C43        1.0     0.668359      0.166014      0.167297     Biso  1.000000 C
   C44        1.0     0.779497      0.220429      0.167041     Biso  1.000000 C
   C45        1.0     0.668119      0.333453      0.172898     Biso  1.000000 C
   C46        1.0     0.778637      0.387399      0.169515     Biso  1.000000 C
   C47        1.0     0.776674      0.551722      0.174632     Biso  1.000000 C
   C48        1.0     0.661577      0.826329      0.166332     Biso  1.000000 C
   C49        1.0     0.774191      0.880787      0.172078     Biso  1.000000 C
   C50        1.0     0.832529      0.994737      0.171306     Biso  1.000000 C
   C51        1.0     0.945209      0.053777      0.173366     Biso  1.000000 C
   C52        1.0     0.835287      0.164149      0.167480     Biso  1.000000 C
   C53        1.0     0.946865      0.220846      0.167431     Biso  1.000000 C
   C54        1.0     0.834099      0.331586      0.166338     Biso  1.000000 C
   C55        1.0     0.945128      0.387634      0.162109     Biso  1.000000 C
   C56        1.0     0.833465      0.498623      0.169644     Biso  1.000000 C
   C57        1.0     0.944186      0.554663      0.163355     Biso  1.000000 C
   C58        1.0     0.833946      0.664357      0.173459     Biso  1.000000 C
   C59        1.0     0.944510      0.720275      0.169083     Biso  1.000000 C
   C60        1.0     0.830382      0.824734      0.174483     Biso  1.000000 C
   C61        1.0     0.943350      0.885642      0.173755     Biso  1.000000 C
   C62        1.0     0.629959      0.613779      0.309425     Biso  1.000000 C
   N1         1.0     0.280784      0.218553      0.181149     Biso  1.000000 N
   N2         1.0     0.278766      0.398493      0.167423     Biso  1.000000 N
   N3         1.0     0.504817      0.332675      0.182476     Biso  1.000000 N
   N4         1.0     0.494118      0.513350      0.175996     Biso  1.000000 N
   N5         1.0     0.601780      0.718801      0.166213     Biso  1.000000 N
   N6         1.0     0.667828      0.499431      0.178852     Biso  1.000000 N
   N7         1.0     0.778949      0.716504      0.175745     Biso  1.000000 N
   Co1        1.0     0.633843      0.611369      0.186135     Biso  1.000000 Co
   Cr1        1.0     0.394337      0.369278      0.184722     Biso  1.000000 Cr
   O1         1.0     0.567660      0.620668      0.356894     Biso  1.000000 O
   H1         1.0     0.698036      0.608708      0.337010     Biso  1.000000 H
