#======================================================================

# CRYSTAL DATA

#----------------------------------------------------------------------

data_VESTA_phase_1


_chemical_name_common                  'contcar\(24)                          '
_cell_length_a                         14.76000
_cell_length_b                         14.76000
_cell_length_c                         15.00000
_cell_angle_alpha                      90
_cell_angle_beta                       90
_cell_angle_gamma                      120
_space_group_name_H-M_alt              'P 1'
_space_group_IT_number                 1

loop_
_space_group_symop_operation_xyz
   'x, y, z'

loop_
   _atom_site_label
   _atom_site_occupancy
   _atom_site_fract_x
   _atom_site_fract_y
   _atom_site_fract_z
   _atom_site_adp_type
   _atom_site_B_iso_or_equiv
   _atom_site_type_symbol
   C1         1.0    -0.003232      0.993291      0.176246     Biso  1.000000 C
   C2         1.0     0.109616      0.051166      0.176187     Biso  1.000000 C
   C3         1.0     0.000175      0.161380      0.172582     Biso  1.000000 C
   C4         1.0     0.114386      0.220424      0.174457     Biso  1.000000 C
   C5         1.0    -0.002951      0.326846      0.161528     Biso  1.000000 C
   C6         1.0     0.108239      0.384423      0.157898     Biso  1.000000 C
   C7         1.0     0.994675      0.493350      0.156570     Biso  1.000000 C
   C8         1.0     0.104806      0.550442      0.149506     Biso  1.000000 C
   C9         1.0     0.995364      0.659971      0.162226     Biso  1.000000 C
   C10        1.0     0.106140      0.717296      0.155602     Biso  1.000000 C
   C11        1.0     0.995921      0.826588      0.171929     Biso  1.000000 C
   C12        1.0     0.107290      0.883717      0.167961     Biso  1.000000 C
   C13        1.0     0.164075      0.994978      0.171745     Biso  1.000000 C
   C14        1.0     0.275934      0.051113      0.169366     Biso  1.000000 C
   C15        1.0     0.170509      0.164338      0.178275     Biso  1.000000 C
   C16        1.0     0.168458      0.333321      0.166735     Biso  1.000000 C
   C17        1.0     0.159857      0.495373      0.148873     Biso  1.000000 C
   C18        1.0     0.269624      0.553360      0.142819     Biso  1.000000 C
   C19        1.0     0.160711      0.662049      0.147719     Biso  1.000000 C
   C20        1.0     0.271471      0.718967      0.142918     Biso  1.000000 C
   C21        1.0     0.162369      0.828369      0.159167     Biso  1.000000 C
   C22        1.0     0.273345      0.884543      0.155491     Biso  1.000000 C
   C23        1.0     0.330486      0.995423      0.161752     Biso  1.000000 C
   C24        1.0     0.441303      0.050764      0.161548     Biso  1.000000 C
   C25        1.0     0.331971      0.161818      0.175583     Biso  1.000000 C
   C26        1.0     0.444940      0.218718      0.175264     Biso  1.000000 C
   C27        1.0     0.323807      0.499079      0.150265     Biso  1.000000 C
   C28        1.0     0.434208      0.555414      0.149136     Biso  1.000000 C
   C29        1.0     0.326126      0.664026      0.139181     Biso  1.000000 C
   C30        1.0     0.436818      0.720249      0.142519     Biso  1.000000 C
   C31        1.0     0.328433      0.829725      0.147785     Biso  1.000000 C
   C32        1.0     0.439939      0.885395      0.149607     Biso  1.000000 C
   C33        1.0     0.496828      0.995506      0.156764     Biso  1.000000 C
   C34        1.0     0.607940      0.048910      0.160637     Biso  1.000000 C
   C35        1.0     0.497509      0.161515      0.168301     Biso  1.000000 C
   C36        1.0     0.608787      0.216559      0.167944     Biso  1.000000 C
   C37        1.0     0.607780      0.384954      0.176490     Biso  1.000000 C
   C38        1.0     0.490834      0.665615      0.148112     Biso  1.000000 C
   C39        1.0     0.494893      0.830021      0.148501     Biso  1.000000 C
   C40        1.0     0.605641      0.880935      0.157130     Biso  1.000000 C
   C41        1.0     0.662918      0.992296      0.161549     Biso  1.000000 C
   C42        1.0     0.774335      0.046749      0.167089     Biso  1.000000 C
   C43        1.0     0.663998      0.160319      0.164698     Biso  1.000000 C
   C44        1.0     0.775164      0.214761      0.165026     Biso  1.000000 C
   C45        1.0     0.663482      0.327696      0.170576     Biso  1.000000 C
   C46        1.0     0.774149      0.381619      0.167440     Biso  1.000000 C
   C47        1.0     0.772284      0.545903      0.174408     Biso  1.000000 C
   C48        1.0     0.656816      0.819941      0.163457     Biso  1.000000 C
   C49        1.0     0.769631      0.874911      0.172212     Biso  1.000000 C
   C50        1.0     0.828195      0.989045      0.171714     Biso  1.000000 C
   C51        1.0     0.941203      0.048504      0.174816     Biso  1.000000 C
   C52        1.0     0.831004      0.158564      0.166495     Biso  1.000000 C
   C53        1.0     0.942813      0.215406      0.167397     Biso  1.000000 C
   C54        1.0     0.829806      0.325924      0.164317     Biso  1.000000 C
   C55        1.0     0.940954      0.382079      0.160253     Biso  1.000000 C
   C56        1.0     0.829057      0.492882      0.168323     Biso  1.000000 C
   C57        1.0     0.939864      0.549121      0.161876     Biso  1.000000 C
   C58        1.0     0.829334      0.658735      0.175497     Biso  1.000000 C
   C59        1.0     0.940002      0.714801      0.169951     Biso  1.000000 C
   C60        1.0     0.825860      0.818958      0.176944     Biso  1.000000 C
   C61        1.0     0.939262      0.880421      0.175827     Biso  1.000000 C
   C62        1.0     0.511310      0.498665      0.359046     Biso  1.000000 C
   N1         1.0     0.279172      0.216705      0.181844     Biso  1.000000 N
   N2         1.0     0.275975      0.393579      0.167252     Biso  1.000000 N
   N3         1.0     0.499626      0.327774      0.181416     Biso  1.000000 N
   N4         1.0     0.487942      0.504901      0.161084     Biso  1.000000 N
   N5         1.0     0.596965      0.712229      0.160884     Biso  1.000000 N
   N6         1.0     0.663443      0.493182      0.177395     Biso  1.000000 N
   N7         1.0     0.774035      0.710538      0.180123     Biso  1.000000 N
   Co1        1.0     0.626657      0.602000      0.180619     Biso  1.000000 Co
   Cr1        1.0     0.393466      0.370011      0.203133     Biso  1.000000 Cr
   O1         1.0     0.432207      0.416101      0.324919     Biso  1.000000 O
   O2         1.0     0.589236      0.571696      0.321574     Biso  1.000000 O
   H1         1.0     0.506163      0.501746      0.432696     Biso  1.000000 H
