#======================================================================

# CRYSTAL DATA

#----------------------------------------------------------------------

data_VESTA_phase_1


_chemical_name_common                  'poscar\(24)                           '
_cell_length_a                         14.76000
_cell_length_b                         14.76000
_cell_length_c                         15.00000
_cell_angle_alpha                      90
_cell_angle_beta                       90
_cell_angle_gamma                      120
_space_group_name_H-M_alt              'P 1'
_space_group_IT_number                 1

loop_
_space_group_symop_operation_xyz
   'x, y, z'

loop_
   _atom_site_label
   _atom_site_occupancy
   _atom_site_fract_x
   _atom_site_fract_y
   _atom_site_fract_z
   _atom_site_adp_type
   _atom_site_B_iso_or_equiv
   _atom_site_type_symbol
   C1         1.0     0.000135      0.997617      0.173922     Biso  1.000000 C
   C2         1.0     0.112578      0.054796      0.172497     Biso  1.000000 C
   C3         1.0     0.003579      0.165906      0.174482     Biso  1.000000 C
   C4         1.0     0.117239      0.224176      0.178555     Biso  1.000000 C
   C5         1.0     0.000352      0.331656      0.164715     Biso  1.000000 C
   C6         1.0     0.111582      0.389043      0.166778     Biso  1.000000 C
   C7         1.0     0.998453      0.498274      0.156063     Biso  1.000000 C
   C8         1.0     0.108946      0.554899      0.152846     Biso  1.000000 C
   C9         1.0     0.999173      0.664956      0.155944     Biso  1.000000 C
   C10        1.0     0.110134      0.721684      0.150616     Biso  1.000000 C
   C11        1.0    -0.000252      0.831309      0.165549     Biso  1.000000 C
   C12        1.0     0.111007      0.888034      0.160260     Biso  1.000000 C
   C13        1.0     0.167421      0.999042      0.164994     Biso  1.000000 C
   C14        1.0     0.279260      0.054898      0.162011     Biso  1.000000 C
   C15        1.0     0.172865      0.167213      0.178056     Biso  1.000000 C
   C16        1.0     0.171113      0.337559      0.177697     Biso  1.000000 C
   C17        1.0     0.164124      0.499969      0.158922     Biso  1.000000 C
   C18        1.0     0.274400      0.558043      0.160268     Biso  1.000000 C
   C19        1.0     0.164887      0.666315      0.148270     Biso  1.000000 C
   C20        1.0     0.275827      0.722969      0.146377     Biso  1.000000 C
   C21        1.0     0.166183      0.832769      0.152031     Biso  1.000000 C
   C22        1.0     0.277193      0.888738      0.149017     Biso  1.000000 C
   C23        1.0     0.334142     -0.000430      0.153758     Biso  1.000000 C
   C24        1.0     0.445056      0.055035      0.153938     Biso  1.000000 C
   C25        1.0     0.334829      0.165141      0.170233     Biso  1.000000 C
   C26        1.0     0.448254      0.222628      0.168568     Biso  1.000000 C
   C27        1.0     0.327673      0.504421      0.176446     Biso  1.000000 C
   C28        1.0     0.439228      0.561967      0.184166     Biso  1.000000 C
   C29        1.0     0.330684      0.668466      0.151877     Biso  1.000000 C
   C30        1.0     0.440985      0.724576      0.155395     Biso  1.000000 C
   C31        1.0     0.332607      0.833829      0.145789     Biso  1.000000 C
   C32        1.0     0.444033      0.889521      0.147901     Biso  1.000000 C
   C33        1.0     0.500834      0.000054      0.151413     Biso  1.000000 C
   C34        1.0     0.611882      0.053837      0.156385     Biso  1.000000 C
   C35        1.0     0.501102      0.166014      0.160384     Biso  1.000000 C
   C36        1.0     0.612387      0.221656      0.160842     Biso  1.000000 C
   C37        1.0     0.610837      0.389896      0.171221     Biso  1.000000 C
   C38        1.0     0.494824      0.670329      0.168278     Biso  1.000000 C
   C39        1.0     0.498964      0.834199      0.152220     Biso  1.000000 C
   C40        1.0     0.609862      0.885634      0.159976     Biso  1.000000 C
   C41        1.0     0.666933      0.997208      0.160667     Biso  1.000000 C
   C42        1.0     0.778056      0.051585      0.166829     Biso  1.000000 C
   C43        1.0     0.667701      0.165392      0.159295     Biso  1.000000 C
   C44        1.0     0.778867      0.219849      0.161856     Biso  1.000000 C
   C45        1.0     0.666986      0.333227      0.164268     Biso  1.000000 C
   C46        1.0     0.777667      0.387052      0.161816     Biso  1.000000 C
   C47        1.0     0.775377      0.551509      0.167960     Biso  1.000000 C
   C48        1.0     0.661552      0.825402      0.168650     Biso  1.000000 C
   C49        1.0     0.773802      0.880058      0.174938     Biso  1.000000 C
   C50        1.0     0.832020      0.994095      0.172610     Biso  1.000000 C
   C51        1.0     0.944730      0.053098      0.174987     Biso  1.000000 C
   C52        1.0     0.834607      0.163600      0.165685     Biso  1.000000 C
   C53        1.0     0.946151      0.220154      0.168887     Biso  1.000000 C
   C54        1.0     0.833275      0.331126      0.160866     Biso  1.000000 C
   C55        1.0     0.944461      0.387011      0.160117     Biso  1.000000 C
   C56        1.0     0.832330      0.498226      0.162155     Biso  1.000000 C
   C57        1.0     0.943323      0.554105      0.157293     Biso  1.000000 C
   C58        1.0     0.833364      0.664039      0.170738     Biso  1.000000 C
   C59        1.0     0.944000      0.719928      0.162879     Biso  1.000000 C
   C60        1.0     0.830532      0.824203      0.178091     Biso  1.000000 C
   C61        1.0     0.943288      0.885135      0.172676     Biso  1.000000 C
   C62        1.0     0.643376      0.624452      0.321793     Biso  1.000000 C
   N1         1.0     0.280747      0.218086      0.180536     Biso  1.000000 N
   N2         1.0     0.277624      0.397881      0.186501     Biso  1.000000 N
   N3         1.0     0.503471      0.332023      0.176711     Biso  1.000000 N
   N4         1.0     0.493553      0.514512      0.205094     Biso  1.000000 N
   N5         1.0     0.601729      0.716866      0.170240     Biso  1.000000 N
   N6         1.0     0.666410      0.499595      0.172095     Biso  1.000000 N
   N7         1.0     0.779443      0.716305      0.182184     Biso  1.000000 N
   Co1        1.0     0.634777      0.612225      0.205684     Biso  1.000000 Co
   Cr1        1.0     0.393178      0.367290      0.199831     Biso  1.000000 Cr
   H1         1.0     0.574454      0.586852      0.365620     Biso  1.000000 H
   H2         1.0     0.717604      0.678326      0.355426     Biso  1.000000 H
