#======================================================================

# CRYSTAL DATA

#----------------------------------------------------------------------

data_VESTA_phase_1


_chemical_name_common                  'CONTCAR\(24)                          '
_cell_length_a                         14.76000
_cell_length_b                         14.76000
_cell_length_c                         15.00000
_cell_angle_alpha                      90
_cell_angle_beta                       90
_cell_angle_gamma                      120
_space_group_name_H-M_alt              'P 1'
_space_group_IT_number                 1

loop_
_space_group_symop_operation_xyz
   'x, y, z'

loop_
   _atom_site_label
   _atom_site_occupancy
   _atom_site_fract_x
   _atom_site_fract_y
   _atom_site_fract_z
   _atom_site_adp_type
   _atom_site_B_iso_or_equiv
   _atom_site_type_symbol
   C1         1.0     0.000726      0.995177      0.171528     Biso  1.000000 C
   C2         1.0     0.113061      0.052580      0.167981     Biso  1.000000 C
   C3         1.0     0.004135      0.163468      0.175093     Biso  1.000000 C
   C4         1.0     0.117849      0.221930      0.178227     Biso  1.000000 C
   C5         1.0     0.000888      0.329224      0.166429     Biso  1.000000 C
   C6         1.0     0.111937      0.386962      0.171064     Biso  1.000000 C
   C7         1.0     0.999041      0.495724      0.154288     Biso  1.000000 C
   C8         1.0     0.109390      0.552740      0.154818     Biso  1.000000 C
   C9         1.0     0.999560      0.662378      0.151071     Biso  1.000000 C
   C10        1.0     0.110559      0.719437      0.147860     Biso  1.000000 C
   C11        1.0     0.000026      0.829001      0.160027     Biso  1.000000 C
   C12        1.0     0.111393      0.886023      0.154523     Biso  1.000000 C
   C13        1.0     0.168016      0.997071      0.158902     Biso  1.000000 C
   C14        1.0     0.279894      0.053060      0.155295     Biso  1.000000 C
   C15        1.0     0.173560      0.165192      0.173725     Biso  1.000000 C
   C16        1.0     0.171552      0.335425      0.181292     Biso  1.000000 C
   C17        1.0     0.164246      0.497997      0.165099     Biso  1.000000 C
   C18        1.0     0.274068      0.556414      0.172026     Biso  1.000000 C
   C19        1.0     0.165363      0.664187      0.149724     Biso  1.000000 C
   C20        1.0     0.276168      0.721022      0.152203     Biso  1.000000 C
   C21        1.0     0.166707      0.830678      0.148097     Biso  1.000000 C
   C22        1.0     0.277694      0.886659      0.146653     Biso  1.000000 C
   C23        1.0     0.334810      0.997666      0.149057     Biso  1.000000 C
   C24        1.0     0.445684      0.053081      0.150340     Biso  1.000000 C
   C25        1.0     0.335678      0.163462      0.162443     Biso  1.000000 C
   C26        1.0     0.449036      0.220854      0.161109     Biso  1.000000 C
   C27        1.0     0.327193      0.502771      0.188204     Biso  1.000000 C
   C28        1.0     0.438414      0.559815      0.195221     Biso  1.000000 C
   C29        1.0     0.330648      0.666863      0.163942     Biso  1.000000 C
   C30        1.0     0.440594      0.723192      0.170979     Biso  1.000000 C
   C31        1.0     0.333092      0.831753      0.148848     Biso  1.000000 C
   C32        1.0     0.444403      0.887538      0.153457     Biso  1.000000 C
   C33        1.0     0.501460      0.998044      0.152532     Biso  1.000000 C
   C34        1.0     0.612314      0.051563      0.158218     Biso  1.000000 C
   C35        1.0     0.501782      0.163969      0.154849     Biso  1.000000 C
   C36        1.0     0.613148      0.219218      0.156732     Biso  1.000000 C
   C37        1.0     0.612075      0.387653      0.165742     Biso  1.000000 C
   C38        1.0     0.494050      0.669344      0.186856     Biso  1.000000 C
   C39        1.0     0.499044      0.832669      0.163889     Biso  1.000000 C
   C40        1.0     0.609951      0.884080      0.170022     Biso  1.000000 C
   C41        1.0     0.667292      0.995196      0.165630     Biso  1.000000 C
   C42        1.0     0.778599      0.049375      0.170326     Biso  1.000000 C
   C43        1.0     0.668380      0.163051      0.158113     Biso  1.000000 C
   C44        1.0     0.779479      0.217354      0.161379     Biso  1.000000 C
   C45        1.0     0.667935      0.330554      0.159139     Biso  1.000000 C
   C46        1.0     0.778380      0.384274      0.157524     Biso  1.000000 C
   C47        1.0     0.776040      0.548359      0.162734     Biso  1.000000 C
   C48        1.0     0.661813      0.824363      0.180745     Biso  1.000000 C
   C49        1.0     0.774281      0.877856      0.178875     Biso  1.000000 C
   C50        1.0     0.832583      0.991858      0.175289     Biso  1.000000 C
   C51        1.0     0.945375      0.050712      0.174969     Biso  1.000000 C
   C52        1.0     0.835220      0.161181      0.167326     Biso  1.000000 C
   C53        1.0     0.946661      0.217722      0.170606     Biso  1.000000 C
   C54        1.0     0.834021      0.328404      0.158761     Biso  1.000000 C
   C55        1.0     0.945137      0.384421      0.159408     Biso  1.000000 C
   C56        1.0     0.833078      0.495522      0.156544     Biso  1.000000 C
   C57        1.0     0.943985      0.551551      0.152466     Biso  1.000000 C
   C58        1.0     0.833730      0.661464      0.164438     Biso  1.000000 C
   C59        1.0     0.944191      0.717313      0.157213     Biso  1.000000 C
   C60        1.0     0.830671      0.821429      0.175024     Biso  1.000000 C
   C61        1.0     0.943573      0.882589      0.168946     Biso  1.000000 C
   C62        1.0     0.643797      0.631010      0.395130     Biso  1.000000 C
   N1         1.0     0.281464      0.216389      0.172919     Biso  1.000000 N
   N2         1.0     0.277736      0.395498      0.192350     Biso  1.000000 N
   N3         1.0     0.504327      0.330068      0.169674     Biso  1.000000 N
   N4         1.0     0.493517      0.510039      0.202385     Biso  1.000000 N
   N5         1.0     0.601534      0.716651      0.192568     Biso  1.000000 N
   N6         1.0     0.667708      0.496038      0.169610     Biso  1.000000 N
   N7         1.0     0.779272      0.713402      0.174281     Biso  1.000000 N
   Co1        1.0     0.635704      0.607215      0.197110     Biso  1.000000 Co
   Cr1        1.0     0.394687      0.365486      0.194660     Biso  1.000000 Cr
   O1         1.0     0.666683      0.590022      0.334147     Biso  1.000000 O
   O2         1.0     0.610655      0.698963      0.385086     Biso  1.000000 O
   H1         1.0     0.649166      0.613904      0.465856     Biso  1.000000 H
   H2         1.0     0.607485      0.710192      0.319451     Biso  1.000000 H
