#======================================================================

# CRYSTAL DATA

#----------------------------------------------------------------------

data_VESTA_phase_1


_chemical_name_common                  'POSCAR\(15)                           '
_cell_length_a                         14.76000
_cell_length_b                         14.76000
_cell_length_c                         15.00000
_cell_angle_alpha                      90
_cell_angle_beta                       90
_cell_angle_gamma                      120
_space_group_name_H-M_alt              'P 1'
_space_group_IT_number                 1

loop_
_space_group_symop_operation_xyz
   'x, y, z'

loop_
   _atom_site_label
   _atom_site_occupancy
   _atom_site_fract_x
   _atom_site_fract_y
   _atom_site_fract_z
   _atom_site_adp_type
   _atom_site_B_iso_or_equiv
   _atom_site_type_symbol
   C1         1.0    -0.000456      0.998261      0.171197     Biso  1.000000 C
   C2         1.0     0.112016      0.055634      0.170320     Biso  1.000000 C
   C3         1.0     0.003184      0.166522      0.169917     Biso  1.000000 C
   C4         1.0     0.116878      0.224976      0.172188     Biso  1.000000 C
   C5         1.0     0.000078      0.332213      0.162839     Biso  1.000000 C
   C6         1.0     0.111154      0.389655      0.162682     Biso  1.000000 C
   C7         1.0     0.998043      0.498747      0.158685     Biso  1.000000 C
   C8         1.0     0.108320      0.555723      0.155245     Biso  1.000000 C
   C9         1.0     0.998778      0.665330      0.161447     Biso  1.000000 C
   C10        1.0     0.109528      0.722456      0.157123     Biso  1.000000 C
   C11        1.0    -0.000848      0.831949      0.167671     Biso  1.000000 C
   C12        1.0     0.110317      0.888748      0.164307     Biso  1.000000 C
   C13        1.0     0.166869     -0.000067      0.166528     Biso  1.000000 C
   C14        1.0     0.278710      0.055845      0.164581     Biso  1.000000 C
   C15        1.0     0.172720      0.168425      0.172177     Biso  1.000000 C
   C16        1.0     0.171103      0.338138      0.170185     Biso  1.000000 C
   C17        1.0     0.163366      0.500706      0.157354     Biso  1.000000 C
   C18        1.0     0.273319      0.559003      0.156841     Biso  1.000000 C
   C19        1.0     0.164180      0.667168      0.153338     Biso  1.000000 C
   C20        1.0     0.274867      0.724117      0.151433     Biso  1.000000 C
   C21        1.0     0.165678      0.833509      0.158720     Biso  1.000000 C
   C22        1.0     0.276614      0.889637      0.156233     Biso  1.000000 C
   C23        1.0     0.333706      0.000530      0.159707     Biso  1.000000 C
   C24        1.0     0.444452      0.056047      0.159440     Biso  1.000000 C
   C25        1.0     0.334282      0.166511      0.168518     Biso  1.000000 C
   C26        1.0     0.447828      0.223928      0.168829     Biso  1.000000 C
   C27        1.0     0.327341      0.504841      0.165897     Biso  1.000000 C
   C28        1.0     0.437767      0.561568      0.168311     Biso  1.000000 C
   C29        1.0     0.329585      0.669417      0.152794     Biso  1.000000 C
   C30        1.0     0.439993      0.725612      0.155832     Biso  1.000000 C
   C31        1.0     0.331849      0.834835      0.152694     Biso  1.000000 C
   C32        1.0     0.443226      0.890558      0.154392     Biso  1.000000 C
   C33        1.0     0.500129      0.000979      0.157510     Biso  1.000000 C
   C34        1.0     0.611140      0.054518      0.160340     Biso  1.000000 C
   C35        1.0     0.500594      0.167004      0.163630     Biso  1.000000 C
   C36        1.0     0.611889      0.222255      0.164019     Biso  1.000000 C
   C37        1.0     0.610693      0.390590      0.171744     Biso  1.000000 C
   C38        1.0     0.493655      0.670914      0.162720     Biso  1.000000 C
   C39        1.0     0.498140      0.835372      0.156339     Biso  1.000000 C
   C40        1.0     0.609038      0.886482      0.161404     Biso  1.000000 C
   C41        1.0     0.666242      0.997909      0.162248     Biso  1.000000 C
   C42        1.0     0.777565      0.052270      0.165629     Biso  1.000000 C
   C43        1.0     0.667202      0.165981      0.162389     Biso  1.000000 C
   C44        1.0     0.778289      0.220359      0.163198     Biso  1.000000 C
   C45        1.0     0.666650      0.333535      0.166370     Biso  1.000000 C
   C46        1.0     0.777317      0.387338      0.164585     Biso  1.000000 C
   C47        1.0     0.775850      0.551784      0.170517     Biso  1.000000 C
   C48        1.0     0.660530      0.825786      0.166358     Biso  1.000000 C
   C49        1.0     0.773198      0.880621      0.169950     Biso  1.000000 C
   C50        1.0     0.831484      0.994549      0.168947     Biso  1.000000 C
   C51        1.0     0.944199      0.053702      0.170681     Biso  1.000000 C
   C52        1.0     0.834188      0.164118      0.164831     Biso  1.000000 C
   C53        1.0     0.945772      0.220738      0.166264     Biso  1.000000 C
   C54        1.0     0.832906      0.331549      0.162746     Biso  1.000000 C
   C55        1.0     0.944066      0.387528      0.161040     Biso  1.000000 C
   C56        1.0     0.832354      0.498582      0.165555     Biso  1.000000 C
   C57        1.0     0.943248      0.554628      0.161430     Biso  1.000000 C
   C58        1.0     0.833047      0.664368      0.170879     Biso  1.000000 C
   C59        1.0     0.943385      0.720272      0.166613     Biso  1.000000 C
   C60        1.0     0.829401      0.824477      0.172200     Biso  1.000000 C
   C61        1.0     0.942353      0.885596      0.170940     Biso  1.000000 C
   C62        1.0     0.407817      0.380269      0.332266     Biso  1.000000 C
   N1         1.0     0.280400      0.219727      0.172483     Biso  1.000000 N
   N2         1.0     0.277921      0.398109      0.175032     Biso  1.000000 N
   N3         1.0     0.502909      0.333140      0.175509     Biso  1.000000 N
   N4         1.0     0.493502      0.512296      0.179331     Biso  1.000000 N
   N5         1.0     0.600977      0.717657      0.167617     Biso  1.000000 N
   N6         1.0     0.666689      0.499859      0.174080     Biso  1.000000 N
   N7         1.0     0.777439      0.716043      0.173992     Biso  1.000000 N
   Co1        1.0     0.632988      0.609839      0.174960     Biso  1.000000 Co
   Cr1        1.0     0.393672      0.369514      0.198580     Biso  1.000000 Cr
   O1         1.0     0.489005      0.464044      0.372900     Biso  1.000000 O
   O2         1.0     0.340718      0.307254      0.375271     Biso  1.000000 O
   H1         1.0     0.531220      0.511965      0.324627     Biso  1.000000 H
