#======================================================================

# CRYSTAL DATA

#----------------------------------------------------------------------

data_VESTA_phase_1


_chemical_name_common                  'CONTCAR\(24)                          '
_cell_length_a                         14.76000
_cell_length_b                         14.76000
_cell_length_c                         15.00000
_cell_angle_alpha                      90
_cell_angle_beta                       90
_cell_angle_gamma                      120
_space_group_name_H-M_alt              'P 1'
_space_group_IT_number                 1

loop_
_space_group_symop_operation_xyz
   'x, y, z'

loop_
   _atom_site_label
   _atom_site_occupancy
   _atom_site_fract_x
   _atom_site_fract_y
   _atom_site_fract_z
   _atom_site_adp_type
   _atom_site_B_iso_or_equiv
   _atom_site_type_symbol
   C1         1.0     0.000057      0.995560      0.171202     Biso  1.000000 C
   C2         1.0     0.112644      0.053026      0.168672     Biso  1.000000 C
   C3         1.0     0.003689      0.163948      0.173931     Biso  1.000000 C
   C4         1.0     0.117574      0.222366      0.177252     Biso  1.000000 C
   C5         1.0     0.000633      0.329555      0.165291     Biso  1.000000 C
   C6         1.0     0.111953      0.387077      0.166604     Biso  1.000000 C
   C7         1.0     0.998357      0.495944      0.155979     Biso  1.000000 C
   C8         1.0     0.108867      0.552946      0.153110     Biso  1.000000 C
   C9         1.0     0.998902      0.662493      0.154616     Biso  1.000000 C
   C10        1.0     0.109810      0.719671      0.149360     Biso  1.000000 C
   C11        1.0     0.999249      0.829051      0.162166     Biso  1.000000 C
   C12        1.0     0.110518      0.886068      0.156638     Biso  1.000000 C
   C13        1.0     0.167229      0.997327      0.160598     Biso  1.000000 C
   C14        1.0     0.279069      0.053646      0.157003     Biso  1.000000 C
   C15        1.0     0.173417      0.165741      0.174909     Biso  1.000000 C
   C16        1.0     0.171989      0.335660      0.176437     Biso  1.000000 C
   C17        1.0     0.164035      0.497991      0.159211     Biso  1.000000 C
   C18        1.0     0.274056      0.556015      0.160710     Biso  1.000000 C
   C19        1.0     0.164627      0.664288      0.148318     Biso  1.000000 C
   C20        1.0     0.275576      0.721141      0.147517     Biso  1.000000 C
   C21        1.0     0.165869      0.830851      0.149574     Biso  1.000000 C
   C22        1.0     0.277035      0.887121      0.147069     Biso  1.000000 C
   C23        1.0     0.333971      0.998216      0.150401     Biso  1.000000 C
   C24        1.0     0.444844      0.053838      0.151745     Biso  1.000000 C
   C25        1.0     0.334816      0.164141      0.164798     Biso  1.000000 C
   C26        1.0     0.448144      0.221896      0.163853     Biso  1.000000 C
   C27        1.0     0.327901      0.502067      0.174634     Biso  1.000000 C
   C28        1.0     0.438616      0.559245      0.180483     Biso  1.000000 C
   C29        1.0     0.330095      0.666428      0.153861     Biso  1.000000 C
   C30        1.0     0.440671      0.722983      0.158885     Biso  1.000000 C
   C31        1.0     0.332409      0.832194      0.146286     Biso  1.000000 C
   C32        1.0     0.443812      0.888050      0.149644     Biso  1.000000 C
   C33        1.0     0.500548      0.998602      0.151630     Biso  1.000000 C
   C34        1.0     0.611591      0.052121      0.157207     Biso  1.000000 C
   C35        1.0     0.500930      0.164829      0.157510     Biso  1.000000 C
   C36        1.0     0.612156      0.219944      0.159850     Biso  1.000000 C
   C37        1.0     0.610333      0.388118      0.169994     Biso  1.000000 C
   C38        1.0     0.494279      0.668998      0.171027     Biso  1.000000 C
   C39        1.0     0.498675      0.832828      0.155929     Biso  1.000000 C
   C40        1.0     0.609387      0.884012      0.162777     Biso  1.000000 C
   C41        1.0     0.666597      0.995526      0.162113     Biso  1.000000 C
   C42        1.0     0.777875      0.049751      0.167635     Biso  1.000000 C
   C43        1.0     0.667528      0.163606      0.159657     Biso  1.000000 C
   C44        1.0     0.778644      0.217761      0.162773     Biso  1.000000 C
   C45        1.0     0.666511      0.331213      0.163284     Biso  1.000000 C
   C46        1.0     0.777414      0.384685      0.161917     Biso  1.000000 C
   C47        1.0     0.775498      0.548797      0.167840     Biso  1.000000 C
   C48        1.0     0.660878      0.823638      0.171021     Biso  1.000000 C
   C49        1.0     0.773663      0.878217      0.173149     Biso  1.000000 C
   C50        1.0     0.831910      0.992050      0.171912     Biso  1.000000 C
   C51        1.0     0.944762      0.051040      0.173506     Biso  1.000000 C
   C52        1.0     0.834486      0.161562      0.166648     Biso  1.000000 C
   C53        1.0     0.946263      0.218127      0.169510     Biso  1.000000 C
   C54        1.0     0.833178      0.328940      0.161530     Biso  1.000000 C
   C55        1.0     0.944498      0.384809      0.160699     Biso  1.000000 C
   C56        1.0     0.832296      0.495804      0.161835     Biso  1.000000 C
   C57        1.0     0.943333      0.551797      0.156513     Biso  1.000000 C
   C58        1.0     0.833001      0.661474      0.167754     Biso  1.000000 C
   C59        1.0     0.943368      0.717345      0.160679     Biso  1.000000 C
   C60        1.0     0.829766      0.821833      0.173166     Biso  1.000000 C
   C61        1.0     0.942655      0.882793      0.169342     Biso  1.000000 C
   C62        1.0     0.395520      0.356755      0.324670     Biso  1.000000 C
   N1         1.0     0.281474      0.217346      0.176630     Biso  1.000000 N
   N2         1.0     0.278939      0.395601      0.183643     Biso  1.000000 N
   N3         1.0     0.502154      0.330559      0.173036     Biso  1.000000 N
   N4         1.0     0.493722      0.510864      0.194531     Biso  1.000000 N
   N5         1.0     0.601235      0.715685      0.176099     Biso  1.000000 N
   N6         1.0     0.666542      0.497083      0.174158     Biso  1.000000 N
   N7         1.0     0.777724      0.713267      0.174407     Biso  1.000000 N
   Co1        1.0     0.632868      0.607328      0.183577     Biso  1.000000 Co
   Cr1        1.0     0.392999      0.363979      0.212280     Biso  1.000000 Cr
   O1         1.0     0.403534      0.348048      0.410918     Biso  1.000000 O
   H1         1.0     0.340856      0.337069      0.442847     Biso  1.000000 H
