#======================================================================

# CRYSTAL DATA

#----------------------------------------------------------------------

data_VESTA_phase_1


_chemical_name_common                  '1\(2)                                 '
_cell_length_a                         14.76000
_cell_length_b                         14.76000
_cell_length_c                         15.00000
_cell_angle_alpha                      90
_cell_angle_beta                       90
_cell_angle_gamma                      120
_space_group_name_H-M_alt              'P 1'
_space_group_IT_number                 1

loop_
_space_group_symop_operation_xyz
   'x, y, z'

loop_
   _atom_site_label
   _atom_site_occupancy
   _atom_site_fract_x
   _atom_site_fract_y
   _atom_site_fract_z
   _atom_site_adp_type
   _atom_site_B_iso_or_equiv
   _atom_site_type_symbol
   C1         1.0     0.000143      0.997313      0.167930     Biso  1.000000 C
   C2         1.0     0.112538      0.054456      0.166428     Biso  1.000000 C
   C3         1.0     0.003715      0.165817      0.170539     Biso  1.000000 C
   C4         1.0     0.117516      0.224116      0.174592     Biso  1.000000 C
   C5         1.0     0.001043      0.331753      0.162458     Biso  1.000000 C
   C6         1.0     0.112146      0.389018      0.165373     Biso  1.000000 C
   C7         1.0     0.999166      0.498135      0.152192     Biso  1.000000 C
   C8         1.0     0.109829      0.554794      0.150548     Biso  1.000000 C
   C9         1.0     0.999498      0.664685      0.150757     Biso  1.000000 C
   C10        1.0     0.110522      0.721558      0.146923     Biso  1.000000 C
   C11        1.0    -0.000203      0.831255      0.158773     Biso  1.000000 C
   C12        1.0     0.111016      0.887907      0.154590     Biso  1.000000 C
   C13        1.0     0.167541      0.998974      0.159049     Biso  1.000000 C
   C14        1.0     0.279445      0.054981      0.156122     Biso  1.000000 C
   C15        1.0     0.172684      0.166991      0.172464     Biso  1.000000 C
   C16        1.0     0.171745      0.337351      0.175914     Biso  1.000000 C
   C17        1.0     0.165032      0.500028      0.158634     Biso  1.000000 C
   C18        1.0     0.275084      0.558365      0.164198     Biso  1.000000 C
   C19        1.0     0.165555      0.666226      0.146427     Biso  1.000000 C
   C20        1.0     0.276222      0.723052      0.147212     Biso  1.000000 C
   C21        1.0     0.166500      0.832559      0.148049     Biso  1.000000 C
   C22        1.0     0.277516      0.888680      0.146376     Biso  1.000000 C
   C23        1.0     0.334422      0.999704      0.149771     Biso  1.000000 C
   C24        1.0     0.445231      0.055573      0.151021     Biso  1.000000 C
   C25        1.0     0.335019      0.165377      0.163286     Biso  1.000000 C
   C26        1.0     0.448353      0.223692      0.161803     Biso  1.000000 C
   C27        1.0     0.329147      0.505013      0.183124     Biso  1.000000 C
   C28        1.0     0.437746      0.563558      0.197428     Biso  1.000000 C
   C29        1.0     0.330981      0.668370      0.156782     Biso  1.000000 C
   C30        1.0     0.441019      0.724863      0.163149     Biso  1.000000 C
   C31        1.0     0.332891      0.833734      0.145879     Biso  1.000000 C
   C32        1.0     0.444302      0.889733      0.149444     Biso  1.000000 C
   C33        1.0     0.500954      0.000325      0.151052     Biso  1.000000 C
   C34        1.0     0.611946      0.054160      0.156149     Biso  1.000000 C
   C35        1.0     0.501116      0.166590      0.156149     Biso  1.000000 C
   C36        1.0     0.612495      0.222029      0.157689     Biso  1.000000 C
   C37        1.0     0.611009      0.390750      0.165615     Biso  1.000000 C
   C38        1.0     0.494329      0.670914      0.180937     Biso  1.000000 C
   C39        1.0     0.499091      0.834596      0.156953     Biso  1.000000 C
   C40        1.0     0.609835      0.886350      0.163240     Biso  1.000000 C
   C41        1.0     0.666916      0.997573      0.160977     Biso  1.000000 C
   C42        1.0     0.778362      0.051983      0.165140     Biso  1.000000 C
   C43        1.0     0.667888      0.165738      0.157722     Biso  1.000000 C
   C44        1.0     0.779033      0.220028      0.160128     Biso  1.000000 C
   C45        1.0     0.666963      0.333376      0.160078     Biso  1.000000 C
   C46        1.0     0.777840      0.386917      0.158338     Biso  1.000000 C
   C47        1.0     0.776095      0.551225      0.162180     Biso  1.000000 C
   C48        1.0     0.661366      0.825952      0.171705     Biso  1.000000 C
   C49        1.0     0.774158      0.880370      0.170468     Biso  1.000000 C
   C50        1.0     0.832294      0.994315      0.168622     Biso  1.000000 C
   C51        1.0     0.944963      0.053088      0.169866     Biso  1.000000 C
   C52        1.0     0.834868      0.163694      0.163753     Biso  1.000000 C
   C53        1.0     0.946509      0.220190      0.166359     Biso  1.000000 C
   C54        1.0     0.833615      0.331122      0.158318     Biso  1.000000 C
   C55        1.0     0.944985      0.387055      0.157206     Biso  1.000000 C
   C56        1.0     0.832972      0.498056      0.157293     Biso  1.000000 C
   C57        1.0     0.943983      0.553959      0.152219     Biso  1.000000 C
   C58        1.0     0.833538      0.663656      0.162295     Biso  1.000000 C
   C59        1.0     0.943919      0.719566      0.156381     Biso  1.000000 C
   C60        1.0     0.830155      0.824212      0.169037     Biso  1.000000 C
   C61        1.0     0.943084      0.884884      0.165483     Biso  1.000000 C
   C62        1.0     0.493944      0.489695      0.318943     Biso  1.000000 C
   N1         1.0     0.280568      0.217875      0.174047     Biso  1.000000 N
   N2         1.0     0.278133      0.396808      0.186134     Biso  1.000000 N
   N3         1.0     0.502569      0.333073      0.168645     Biso  1.000000 N
   N4         1.0     0.497404      0.516535      0.220793     Biso  1.000000 N
   N5         1.0     0.602473      0.718678      0.180588     Biso  1.000000 N
   N6         1.0     0.667243      0.499744      0.168382     Biso  1.000000 N
   N7         1.0     0.777947      0.715448      0.169085     Biso  1.000000 N
   Co1        1.0     0.636626      0.613981      0.182612     Biso  1.000000 Co
   Cr1        1.0     0.389673      0.363388      0.204227     Biso  1.000000 Cr
   O1         1.0     0.413540      0.384901      0.326108     Biso  1.000000 O
   H1         1.0     0.570698      0.498973      0.337004     Biso  1.000000 H
   H2         1.0     0.477987      0.542710      0.359611     Biso  1.000000 H
