#======================================================================

# CRYSTAL DATA

#----------------------------------------------------------------------

data_VESTA_phase_1


_chemical_name_common                  'POSCAR\(15)                           '
_cell_length_a                         14.76000
_cell_length_b                         14.76000
_cell_length_c                         15.00000
_cell_angle_alpha                      90
_cell_angle_beta                       90
_cell_angle_gamma                      120
_space_group_name_H-M_alt              'P 1'
_space_group_IT_number                 1

loop_
_space_group_symop_operation_xyz
   'x, y, z'

loop_
   _atom_site_label
   _atom_site_occupancy
   _atom_site_fract_x
   _atom_site_fract_y
   _atom_site_fract_z
   _atom_site_adp_type
   _atom_site_B_iso_or_equiv
   _atom_site_type_symbol
   C1         1.0     0.000331      0.996966      0.167405     Biso  1.000000 C
   C2         1.0     0.112576      0.054207      0.167755     Biso  1.000000 C
   C3         1.0     0.003810      0.165175      0.165614     Biso  1.000000 C
   C4         1.0     0.117454      0.223605      0.164298     Biso  1.000000 C
   C5         1.0     0.000583      0.331055      0.163302     Biso  1.000000 C
   C6         1.0     0.111644      0.388594      0.161948     Biso  1.000000 C
   C7         1.0     0.998841      0.497778      0.162255     Biso  1.000000 C
   C8         1.0     0.109056      0.554770      0.162283     Biso  1.000000 C
   C9         1.0     0.999649      0.664306      0.163828     Biso  1.000000 C
   C10        1.0     0.110433      0.721312      0.165565     Biso  1.000000 C
   C11        1.0    -0.000122      0.830738      0.166795     Biso  1.000000 C
   C12        1.0     0.111201      0.887600      0.168545     Biso  1.000000 C
   C13        1.0     0.167723      0.998585      0.169369     Biso  1.000000 C
   C14        1.0     0.279555      0.054350      0.170668     Biso  1.000000 C
   C15        1.0     0.172948      0.166716      0.166300     Biso  1.000000 C
   C16        1.0     0.171332      0.336820      0.162117     Biso  1.000000 C
   C17        1.0     0.163963      0.499781      0.161531     Biso  1.000000 C
   C18        1.0     0.273966      0.558189      0.161529     Biso  1.000000 C
   C19        1.0     0.165076      0.666204      0.164279     Biso  1.000000 C
   C20        1.0     0.275667      0.723147      0.166034     Biso  1.000000 C
   C21        1.0     0.166527      0.832321      0.168590     Biso  1.000000 C
   C22        1.0     0.277321      0.888292      0.170714     Biso  1.000000 C
   C23        1.0     0.334533     -0.000922      0.171963     Biso  1.000000 C
   C24        1.0     0.445300      0.054601      0.172042     Biso  1.000000 C
   C25        1.0     0.335360      0.164788      0.169050     Biso  1.000000 C
   C26        1.0     0.448850      0.222228      0.169001     Biso  1.000000 C
   C27        1.0     0.327738      0.503963      0.160570     Biso  1.000000 C
   C28        1.0     0.439094      0.561063      0.161344     Biso  1.000000 C
   C29        1.0     0.330459      0.668910      0.164079     Biso  1.000000 C
   C30        1.0     0.440508      0.725230      0.165907     Biso  1.000000 C
   C31        1.0     0.332672      0.833688      0.169693     Biso  1.000000 C
   C32        1.0     0.443873      0.889574      0.170816     Biso  1.000000 C
   C33        1.0     0.501064     -0.000157      0.171809     Biso  1.000000 C
   C34        1.0     0.612022      0.053445      0.170513     Biso  1.000000 C
   C35        1.0     0.501609      0.165431      0.170361     Biso  1.000000 C
   C36        1.0     0.612928      0.220850      0.168401     Biso  1.000000 C
   C37        1.0     0.612255      0.389212      0.165469     Biso  1.000000 C
   C38        1.0     0.494909      0.670916      0.164808     Biso  1.000000 C
   C39        1.0     0.498835      0.834651      0.169059     Biso  1.000000 C
   C40        1.0     0.609770      0.885835      0.169212     Biso  1.000000 C
   C41        1.0     0.667077      0.996989      0.169551     Biso  1.000000 C
   C42        1.0     0.778364      0.051122      0.168365     Biso  1.000000 C
   C43        1.0     0.668154      0.164809      0.168847     Biso  1.000000 C
   C44        1.0     0.779242      0.219190      0.166674     Biso  1.000000 C
   C45        1.0     0.667958      0.332149      0.165682     Biso  1.000000 C
   C46        1.0     0.778328      0.386059      0.163897     Biso  1.000000 C
   C47        1.0     0.776232      0.550178      0.163342     Biso  1.000000 C
   C48        1.0     0.661437      0.825308      0.168836     Biso  1.000000 C
   C49        1.0     0.773953      0.879539      0.169088     Biso  1.000000 C
   C50        1.0     0.832254      0.993421      0.168253     Biso  1.000000 C
   C51        1.0     0.945025      0.052513      0.167185     Biso  1.000000 C
   C52        1.0     0.834956      0.162907      0.166821     Biso  1.000000 C
   C53        1.0     0.946417      0.219524      0.165212     Biso  1.000000 C
   C54        1.0     0.833817      0.330211      0.164370     Biso  1.000000 C
   C55        1.0     0.944807      0.386394      0.162981     Biso  1.000000 C
   C56        1.0     0.833200      0.497279      0.162697     Biso  1.000000 C
   C57        1.0     0.944003      0.553572      0.162574     Biso  1.000000 C
   C58        1.0     0.833742      0.663297      0.164575     Biso  1.000000 C
   C59        1.0     0.944296      0.719196      0.164776     Biso  1.000000 C
   C60        1.0     0.830365      0.823385      0.167774     Biso  1.000000 C
   C61        1.0     0.943290      0.884499      0.167169     Biso  1.000000 C
   C62        1.0     0.555118      0.571849      0.355253     Biso  1.000000 C
   N1         1.0     0.280663      0.217744      0.166404     Biso  1.000000 N
   N2         1.0     0.278213      0.396886      0.160745     Biso  1.000000 N
   N3         1.0     0.504593      0.331683      0.166834     Biso  1.000000 N
   N4         1.0     0.494669      0.511865      0.161061     Biso  1.000000 N
   N5         1.0     0.601475      0.717525      0.167429     Biso  1.000000 N
   N6         1.0     0.667886      0.497744      0.163729     Biso  1.000000 N
   N7         1.0     0.779084      0.715431      0.167098     Biso  1.000000 N
   Co1        1.0     0.634008      0.609264      0.176667     Biso  1.000000 Co
   Cr1        1.0     0.394183      0.367375      0.162547     Biso  1.000000 Cr
   O1         1.0     0.632507      0.593192      0.308119     Biso  1.000000 O
   H1         1.0     0.554084      0.547869      0.425185     Biso  1.000000 H
   H2         1.0     0.487579      0.576252      0.328600     Biso  1.000000 H
