#======================================================================

# CRYSTAL DATA

#----------------------------------------------------------------------

data_VESTA_phase_1


_chemical_name_common                  'POSCAR\(15)                           '
_cell_length_a                         14.76000
_cell_length_b                         14.76000
_cell_length_c                         15.00000
_cell_angle_alpha                      90
_cell_angle_beta                       90
_cell_angle_gamma                      120
_space_group_name_H-M_alt              'P 1'
_space_group_IT_number                 1

loop_
_space_group_symop_operation_xyz
   'x, y, z'

loop_
   _atom_site_label
   _atom_site_occupancy
   _atom_site_fract_x
   _atom_site_fract_y
   _atom_site_fract_z
   _atom_site_adp_type
   _atom_site_B_iso_or_equiv
   _atom_site_type_symbol
   C1         1.0     0.001299      0.995765      0.169746     Biso  1.000000 C
   C2         1.0     0.114029      0.053669      0.166876     Biso  1.000000 C
   C3         1.0     0.004624      0.163779      0.174289     Biso  1.000000 C
   C4         1.0     0.118696      0.222439      0.177207     Biso  1.000000 C
   C5         1.0     0.001808      0.329638      0.169510     Biso  1.000000 C
   C6         1.0     0.112887      0.387190      0.173527     Biso  1.000000 C
   C7         1.0     0.999583      0.496143      0.161560     Biso  1.000000 C
   C8         1.0     0.109932      0.553316      0.163055     Biso  1.000000 C
   C9         1.0     0.000061      0.662695      0.157814     Biso  1.000000 C
   C10        1.0     0.111032      0.719999      0.156177     Biso  1.000000 C
   C11        1.0     0.000381      0.829356      0.161938     Biso  1.000000 C
   C12        1.0     0.111647      0.886448      0.158026     Biso  1.000000 C
   C13        1.0     0.168590     -0.002163      0.160145     Biso  1.000000 C
   C14        1.0     0.280509      0.054018      0.157290     Biso  1.000000 C
   C15        1.0     0.174900      0.166689      0.171680     Biso  1.000000 C
   C16        1.0     0.172791      0.335430      0.180605     Biso  1.000000 C
   C17        1.0     0.164852      0.498396      0.170388     Biso  1.000000 C
   C18        1.0     0.274558      0.556637      0.174368     Biso  1.000000 C
   C19        1.0     0.165807      0.664704      0.159244     Biso  1.000000 C
   C20        1.0     0.276453      0.721596      0.161200     Biso  1.000000 C
   C21        1.0     0.167091      0.831054      0.155032     Biso  1.000000 C
   C22        1.0     0.278133      0.887209      0.154437     Biso  1.000000 C
   C23        1.0     0.335301     -0.001678      0.154386     Biso  1.000000 C
   C24        1.0     0.446125      0.053716      0.155378     Biso  1.000000 C
   C25        1.0     0.336571      0.164886      0.161685     Biso  1.000000 C
   C26        1.0     0.449608      0.221924      0.161725     Biso  1.000000 C
   C27        1.0     0.328619      0.502307      0.183742     Biso  1.000000 C
   C28        1.0     0.438646      0.558477      0.184431     Biso  1.000000 C
   C29        1.0     0.330841      0.666822      0.169148     Biso  1.000000 C
   C30        1.0     0.441332      0.722923      0.172029     Biso  1.000000 C
   C31        1.0     0.333271      0.832265      0.157569     Biso  1.000000 C
   C32        1.0     0.444675      0.887944      0.159968     Biso  1.000000 C
   C33        1.0     0.501663     -0.001634      0.158105     Biso  1.000000 C
   C34        1.0     0.612707      0.051796      0.161808     Biso  1.000000 C
   C35        1.0     0.502326      0.164667      0.157782     Biso  1.000000 C
   C36        1.0     0.613578      0.219766      0.159921     Biso  1.000000 C
   C37        1.0     0.612236      0.388325      0.166485     Biso  1.000000 C
   C38        1.0     0.494955      0.668236      0.178814     Biso  1.000000 C
   C39        1.0     0.499413      0.832732      0.166636     Biso  1.000000 C
   C40        1.0     0.610264      0.883717      0.169268     Biso  1.000000 C
   C41        1.0     0.667533      0.995079      0.166720     Biso  1.000000 C
   C42        1.0     0.779072      0.049556      0.169655     Biso  1.000000 C
   C43        1.0     0.668794      0.163376      0.161425     Biso  1.000000 C
   C44        1.0     0.779891      0.217640      0.164246     Biso  1.000000 C
   C45        1.0     0.668083      0.331070      0.161689     Biso  1.000000 C
   C46        1.0     0.778884      0.384604      0.161620     Biso  1.000000 C
   C47        1.0     0.777089      0.548928      0.165034     Biso  1.000000 C
   C48        1.0     0.661678      0.822814      0.173854     Biso  1.000000 C
   C49        1.0     0.774602      0.877770      0.173167     Biso  1.000000 C
   C50        1.0     0.832984      0.991858      0.172302     Biso  1.000000 C
   C51        1.0     0.945837      0.050995      0.172820     Biso  1.000000 C
   C52        1.0     0.835630      0.161337      0.168396     Biso  1.000000 C
   C53        1.0     0.947343      0.218014      0.171428     Biso  1.000000 C
   C54        1.0     0.834508      0.328788      0.162935     Biso  1.000000 C
   C55        1.0     0.945797      0.384920      0.164470     Biso  1.000000 C
   C56        1.0     0.833723      0.495745      0.161589     Biso  1.000000 C
   C57        1.0     0.944650      0.551958      0.159461     Biso  1.000000 C
   C58        1.0     0.833971      0.661313      0.165639     Biso  1.000000 C
   C59        1.0     0.944414      0.717521      0.160855     Biso  1.000000 C
   C60        1.0     0.830563      0.821672      0.171343     Biso  1.000000 C
   C61        1.0     0.943677      0.882937      0.167769     Biso  1.000000 C
   C62        1.0     0.383472      0.415104      0.390351     Biso  1.000000 C
   N1         1.0     0.283400      0.219084      0.169776     Biso  1.000000 N
   N2         1.0     0.279764      0.395025      0.188781     Biso  1.000000 N
   N3         1.0     0.504028      0.330827      0.169575     Biso  1.000000 N
   N4         1.0     0.493378      0.507351      0.187134     Biso  1.000000 N
   N5         1.0     0.602362      0.714886      0.177703     Biso  1.000000 N
   N6         1.0     0.668070      0.496953      0.169057     Biso  1.000000 N
   N7         1.0     0.777992      0.712682      0.171232     Biso  1.000000 N
   Co1        1.0     0.633929      0.606394      0.177363     Biso  1.000000 Co
   Cr1        1.0     0.396215      0.365004      0.209353     Biso  1.000000 Cr
   O1         1.0     0.402971      0.354772      0.328113     Biso  1.000000 O
   H1         1.0     0.309773      0.414553      0.375722     Biso  1.000000 H
   H2         1.0     0.378329      0.382015      0.457338     Biso  1.000000 H
   H3         1.0     0.448581      0.497013      0.389542     Biso  1.000000 H
