#======================================================================

# CRYSTAL DATA

#----------------------------------------------------------------------

data_VESTA_phase_1


_chemical_name_common                  'CONTCAR\(61)                          '
_cell_length_a                         14.76000
_cell_length_b                         14.76000
_cell_length_c                         15.00000
_cell_angle_alpha                      90
_cell_angle_beta                       90
_cell_angle_gamma                      120
_space_group_name_H-M_alt              'P 1'
_space_group_IT_number                 1

loop_
_space_group_symop_operation_xyz
   'x, y, z'

loop_
   _atom_site_label
   _atom_site_occupancy
   _atom_site_fract_x
   _atom_site_fract_y
   _atom_site_fract_z
   _atom_site_adp_type
   _atom_site_B_iso_or_equiv
   _atom_site_type_symbol
   C1         1.0    -0.000122      0.998242      0.167905     Biso  1.000000 C
   C2         1.0     0.112250      0.055414      0.167893     Biso  1.000000 C
   C3         1.0     0.003623      0.166583      0.168508     Biso  1.000000 C
   C4         1.0     0.117243      0.224957      0.168734     Biso  1.000000 C
   C5         1.0     0.000382      0.332447      0.165373     Biso  1.000000 C
   C6         1.0     0.111407      0.389949      0.164605     Biso  1.000000 C
   C7         1.0     0.998521      0.499051      0.162256     Biso  1.000000 C
   C8         1.0     0.108796      0.556068      0.160782     Biso  1.000000 C
   C9         1.0     0.999308      0.665596      0.161323     Biso  1.000000 C
   C10        1.0     0.110154      0.722643      0.160428     Biso  1.000000 C
   C11        1.0    -0.000424      0.832124      0.163533     Biso  1.000000 C
   C12        1.0     0.110907      0.888893      0.163367     Biso  1.000000 C
   C13        1.0     0.167358      0.999864      0.165949     Biso  1.000000 C
   C14        1.0     0.279314      0.055565      0.166936     Biso  1.000000 C
   C15        1.0     0.172581      0.167957      0.169385     Biso  1.000000 C
   C16        1.0     0.171150      0.338243      0.167401     Biso  1.000000 C
   C17        1.0     0.163712      0.501093      0.161924     Biso  1.000000 C
   C18        1.0     0.273689      0.559576      0.162194     Biso  1.000000 C
   C19        1.0     0.164802      0.667448      0.159931     Biso  1.000000 C
   C20        1.0     0.275468      0.724433      0.160000     Biso  1.000000 C
   C21        1.0     0.166253      0.833623      0.161552     Biso  1.000000 C
   C22        1.0     0.277189      0.889609      0.162315     Biso  1.000000 C
   C23        1.0     0.334326      0.000342      0.165187     Biso  1.000000 C
   C24        1.0     0.445107      0.055857      0.166825     Biso  1.000000 C
   C25        1.0     0.335030      0.165972      0.170064     Biso  1.000000 C
   C26        1.0     0.448734      0.223507      0.171302     Biso  1.000000 C
   C27        1.0     0.327656      0.505455      0.166597     Biso  1.000000 C
   C28        1.0     0.438491      0.562454      0.170198     Biso  1.000000 C
   C29        1.0     0.330196      0.670051      0.160948     Biso  1.000000 C
   C30        1.0     0.440490      0.726289      0.163411     Biso  1.000000 C
   C31        1.0     0.332477      0.835008      0.161333     Biso  1.000000 C
   C32        1.0     0.443734      0.890788      0.163451     Biso  1.000000 C
   C33        1.0     0.500778      0.000991      0.165882     Biso  1.000000 C
   C34        1.0     0.611828      0.054669      0.167634     Biso  1.000000 C
   C35        1.0     0.501401      0.166688      0.169608     Biso  1.000000 C
   C36        1.0     0.612769      0.222323      0.169500     Biso  1.000000 C
   C37        1.0     0.611960      0.390788      0.171656     Biso  1.000000 C
   C38        1.0     0.494501      0.671908      0.168149     Biso  1.000000 C
   C39        1.0     0.498670      0.835815      0.164548     Biso  1.000000 C
   C40        1.0     0.609552      0.886940      0.167641     Biso  1.000000 C
   C41        1.0     0.666835      0.998205      0.168172     Biso  1.000000 C
   C42        1.0     0.778162      0.052455      0.169077     Biso  1.000000 C
   C43        1.0     0.667915      0.166118      0.168598     Biso  1.000000 C
   C44        1.0     0.778997      0.220546      0.167917     Biso  1.000000 C
   C45        1.0     0.667765      0.333685      0.169576     Biso  1.000000 C
   C46        1.0     0.778220      0.387588      0.167131     Biso  1.000000 C
   C47        1.0     0.776391      0.552102      0.166860     Biso  1.000000 C
   C48        1.0     0.661176      0.826345      0.170631     Biso  1.000000 C
   C49        1.0     0.773828      0.880812      0.170097     Biso  1.000000 C
   C50        1.0     0.831988      0.994711      0.169524     Biso  1.000000 C
   C51        1.0     0.944707      0.053792      0.169017     Biso  1.000000 C
   C52        1.0     0.834776      0.164248      0.168223     Biso  1.000000 C
   C53        1.0     0.946287      0.220904      0.167519     Biso  1.000000 C
   C54        1.0     0.833575      0.331690      0.166498     Biso  1.000000 C
   C55        1.0     0.944617      0.387790      0.164501     Biso  1.000000 C
   C56        1.0     0.832933      0.498834      0.165081     Biso  1.000000 C
   C57        1.0     0.943761      0.554898      0.162357     Biso  1.000000 C
   C58        1.0     0.833511      0.664779      0.164597     Biso  1.000000 C
   C59        1.0     0.944007      0.720603      0.162524     Biso  1.000000 C
   C60        1.0     0.829930      0.824655      0.167587     Biso  1.000000 C
   C61        1.0     0.942862      0.885787      0.166072     Biso  1.000000 C
   C62        1.0     0.642406      0.611747      0.310675     Biso  1.000000 C
   N1         1.0     0.280311      0.218833      0.170781     Biso  1.000000 N
   N2         1.0     0.277923      0.398255      0.168753     Biso  1.000000 N
   N3         1.0     0.504500      0.333061      0.172734     Biso  1.000000 N
   N4         1.0     0.494159      0.512911      0.176705     Biso  1.000000 N
   N5         1.0     0.601433      0.718734      0.172742     Biso  1.000000 N
   N6         1.0     0.667688      0.499946      0.171563     Biso  1.000000 N
   N7         1.0     0.778647      0.716720      0.166271     Biso  1.000000 N
   Co1        1.0     0.634728      0.611451      0.183076     Biso  1.000000 Co
   Cr1        1.0     0.393503      0.368340      0.170518     Biso  1.000000 Cr
   O1         1.0     0.554027      0.540877      0.353099     Biso  1.000000 O
   O2         1.0     0.721203      0.670392      0.351075     Biso  1.000000 O
   H1         1.0     0.502870      0.501626      0.305430     Biso  1.000000 H
