#======================================================================

# CRYSTAL DATA

#----------------------------------------------------------------------

data_VESTA_phase_1


_chemical_name_common                  'CONTCAR                               '
_cell_length_a                         14.76000
_cell_length_b                         14.76000
_cell_length_c                         15.00000
_cell_angle_alpha                      90
_cell_angle_beta                       90
_cell_angle_gamma                      120
_space_group_name_H-M_alt              'P 1'
_space_group_IT_number                 1

loop_
_space_group_symop_operation_xyz
   'x, y, z'

loop_
   _atom_site_label
   _atom_site_occupancy
   _atom_site_fract_x
   _atom_site_fract_y
   _atom_site_fract_z
   _atom_site_adp_type
   _atom_site_B_iso_or_equiv
   _atom_site_type_symbol
   C1         1.0     0.001426      0.995821      0.170668     Biso  1.000000 C
   C2         1.0     0.113732      0.052920      0.168771     Biso  1.000000 C
   C3         1.0     0.004856      0.164170      0.173750     Biso  1.000000 C
   C4         1.0     0.118509      0.222411      0.176611     Biso  1.000000 C
   C5         1.0     0.001580      0.329965      0.165211     Biso  1.000000 C
   C6         1.0     0.112704      0.387465      0.167060     Biso  1.000000 C
   C7         1.0     0.999561      0.496363      0.154579     Biso  1.000000 C
   C8         1.0     0.110047      0.553237      0.152466     Biso  1.000000 C
   C9         1.0     0.000139      0.662953      0.152019     Biso  1.000000 C
   C10        1.0     0.111187      0.719965      0.147948     Biso  1.000000 C
   C11        1.0     0.000741      0.829467      0.160321     Biso  1.000000 C
   C12        1.0     0.112026      0.886308      0.155768     Biso  1.000000 C
   C13        1.0     0.168591      0.997292      0.161017     Biso  1.000000 C
   C14        1.0     0.280519      0.053197      0.159341     Biso  1.000000 C
   C15        1.0     0.173978      0.165349      0.174828     Biso  1.000000 C
   C16        1.0     0.172216      0.335737      0.176718     Biso  1.000000 C
   C17        1.0     0.165183      0.498393      0.159916     Biso  1.000000 C
   C18        1.0     0.275469      0.556632      0.162866     Biso  1.000000 C
   C19        1.0     0.166065      0.664683      0.147802     Biso  1.000000 C
   C20        1.0     0.277004      0.721417      0.148314     Biso  1.000000 C
   C21        1.0     0.167334      0.831054      0.149061     Biso  1.000000 C
   C22        1.0     0.278426      0.887081      0.148021     Biso  1.000000 C
   C23        1.0     0.335511      0.997925      0.152668     Biso  1.000000 C
   C24        1.0     0.446326      0.053408      0.154589     Biso  1.000000 C
   C25        1.0     0.336091      0.163381      0.167571     Biso  1.000000 C
   C26        1.0     0.449548      0.220860      0.167223     Biso  1.000000 C
   C27        1.0     0.328614      0.502611      0.177556     Biso  1.000000 C
   C28        1.0     0.440528      0.560490      0.184690     Biso  1.000000 C
   C29        1.0     0.331801      0.667064      0.155756     Biso  1.000000 C
   C30        1.0     0.442093      0.723558      0.161043     Biso  1.000000 C
   C31        1.0     0.333883      0.832310      0.147435     Biso  1.000000 C
   C32        1.0     0.445235      0.888132      0.151625     Biso  1.000000 C
   C33        1.0     0.502194      0.998493      0.154145     Biso  1.000000 C
   C34        1.0     0.613158      0.052145      0.159494     Biso  1.000000 C
   C35        1.0     0.502376      0.164248      0.160506     Biso  1.000000 C
   C36        1.0     0.613702      0.219822      0.161653     Biso  1.000000 C
   C37        1.0     0.612275      0.388074      0.170836     Biso  1.000000 C
   C38        1.0     0.496065      0.669846      0.174170     Biso  1.000000 C
   C39        1.0     0.500186      0.833090      0.157890     Biso  1.000000 C
   C40        1.0     0.611021      0.884326      0.164938     Biso  1.000000 C
   C41        1.0     0.668255      0.995759      0.164191     Biso  1.000000 C
   C42        1.0     0.779434      0.050057      0.169143     Biso  1.000000 C
   C43        1.0     0.669040      0.163663      0.161137     Biso  1.000000 C
   C44        1.0     0.780092      0.218096      0.163469     Biso  1.000000 C
   C45        1.0     0.668361      0.331232      0.164260     Biso  1.000000 C
   C46        1.0     0.778917      0.385103      0.161499     Biso  1.000000 C
   C47        1.0     0.776606      0.549518      0.165630     Biso  1.000000 C
   C48        1.0     0.662949      0.824296      0.173394     Biso  1.000000 C
   C49        1.0     0.775342      0.878635      0.175411     Biso  1.000000 C
   C50        1.0     0.833544      0.992616      0.173219     Biso  1.000000 C
   C51        1.0     0.946119      0.051380      0.173653     Biso  1.000000 C
   C52        1.0     0.835893      0.161923      0.167453     Biso  1.000000 C
   C53        1.0     0.947406      0.218441      0.169690     Biso  1.000000 C
   C54        1.0     0.834552      0.329301      0.161361     Biso  1.000000 C
   C55        1.0     0.945703      0.385221      0.160019     Biso  1.000000 C
   C56        1.0     0.833548      0.496348      0.159924     Biso  1.000000 C
   C57        1.0     0.944438      0.552223      0.154225     Biso  1.000000 C
   C58        1.0     0.834250      0.662037      0.165799     Biso  1.000000 C
   C59        1.0     0.944816      0.717910      0.157846     Biso  1.000000 C
   C60        1.0     0.831752      0.822564      0.173960     Biso  1.000000 C
   C61        1.0     0.944494      0.883431      0.168128     Biso  1.000000 C
   C62        1.0     0.628938      0.613964      0.318096     Biso  1.000000 C
   N1         1.0     0.281758      0.216251      0.176862     Biso  1.000000 N
   N2         1.0     0.278741      0.396056      0.185029     Biso  1.000000 N
   N3         1.0     0.504880      0.330157      0.175445     Biso  1.000000 N
   N4         1.0     0.495502      0.512569      0.197789     Biso  1.000000 N
   N5         1.0     0.602677      0.716235      0.177555     Biso  1.000000 N
   N6         1.0     0.667868      0.497070      0.172662     Biso  1.000000 N
   N7         1.0     0.780750      0.714933      0.175874     Biso  1.000000 N
   Co1        1.0     0.636377      0.610406      0.205528     Biso  1.000000 Co
   Cr1        1.0     0.394028      0.364772      0.194904     Biso  1.000000 Cr
   H1         1.0     0.561269      0.609643      0.356261     Biso  1.000000 H
