#======================================================================

# CRYSTAL DATA

#----------------------------------------------------------------------

data_VESTA_phase_1


_chemical_name_common                  'poscar\(6)                            '
_cell_length_a                         14.76000
_cell_length_b                         14.76000
_cell_length_c                         15.00000
_cell_angle_alpha                      90
_cell_angle_beta                       90
_cell_angle_gamma                      120
_space_group_name_H-M_alt              'P 1'
_space_group_IT_number                 1

loop_
_space_group_symop_operation_xyz
   'x, y, z'

loop_
   _atom_site_label
   _atom_site_occupancy
   _atom_site_fract_x
   _atom_site_fract_y
   _atom_site_fract_z
   _atom_site_adp_type
   _atom_site_B_iso_or_equiv
   _atom_site_type_symbol
   C1         1.0     0.000364      0.998174      0.172848     Biso  1.000000 C
   C2         1.0     0.113039      0.055728      0.171821     Biso  1.000000 C
   C3         1.0     0.003877      0.166384      0.173726     Biso  1.000000 C
   C4         1.0     0.117889      0.224969      0.176888     Biso  1.000000 C
   C5         1.0     0.000933      0.332016      0.164950     Biso  1.000000 C
   C6         1.0     0.112213      0.389368      0.165101     Biso  1.000000 C
   C7         1.0     0.998708      0.498494      0.157462     Biso  1.000000 C
   C8         1.0     0.109033      0.555267      0.153637     Biso  1.000000 C
   C9         1.0     0.999277      0.665132      0.157753     Biso  1.000000 C
   C10        1.0     0.110138      0.722122      0.152614     Biso  1.000000 C
   C11        1.0    -0.000329      0.831777      0.165207     Biso  1.000000 C
   C12        1.0     0.110926      0.888596      0.160795     Biso  1.000000 C
   C13        1.0     0.167661      0.999907      0.165004     Biso  1.000000 C
   C14        1.0     0.279521      0.056070      0.162572     Biso  1.000000 C
   C15        1.0     0.173868      0.168717      0.176773     Biso  1.000000 C
   C16        1.0     0.172373      0.338012      0.174434     Biso  1.000000 C
   C17        1.0     0.164162      0.500265      0.157735     Biso  1.000000 C
   C18        1.0     0.274090      0.558283      0.157764     Biso  1.000000 C
   C19        1.0     0.164876      0.666705      0.149907     Biso  1.000000 C
   C20        1.0     0.275680      0.723585      0.148426     Biso  1.000000 C
   C21        1.0     0.166301      0.833280      0.153825     Biso  1.000000 C
   C22        1.0     0.277293      0.889467      0.151437     Biso  1.000000 C
   C23        1.0     0.334252      0.000524      0.155822     Biso  1.000000 C
   C24        1.0     0.445059      0.056064      0.156619     Biso  1.000000 C
   C25        1.0     0.335422      0.166733      0.169704     Biso  1.000000 C
   C26        1.0     0.448503      0.224213      0.168564     Biso  1.000000 C
   C27        1.0     0.328008      0.504254      0.170120     Biso  1.000000 C
   C28        1.0     0.438106      0.561019      0.175333     Biso  1.000000 C
   C29        1.0     0.330341      0.668756      0.152272     Biso  1.000000 C
   C30        1.0     0.440789      0.725039      0.156955     Biso  1.000000 C
   C31        1.0     0.332549      0.834506      0.148825     Biso  1.000000 C
   C32        1.0     0.443941      0.890286      0.151788     Biso  1.000000 C
   C33        1.0     0.500667      0.000756      0.155093     Biso  1.000000 C
   C34        1.0     0.611712      0.054284      0.159709     Biso  1.000000 C
   C35        1.0     0.501151      0.167025      0.162270     Biso  1.000000 C
   C36        1.0     0.612435      0.222170      0.163410     Biso  1.000000 C
   C37        1.0     0.610901      0.390561      0.172409     Biso  1.000000 C
   C38        1.0     0.494383      0.670523      0.167165     Biso  1.000000 C
   C39        1.0     0.498822      0.835015      0.155930     Biso  1.000000 C
   C40        1.0     0.609579      0.886214      0.162603     Biso  1.000000 C
   C41        1.0     0.666745      0.997677      0.163117     Biso  1.000000 C
   C42        1.0     0.778183      0.052070      0.168029     Biso  1.000000 C
   C43        1.0     0.667750      0.165863      0.162245     Biso  1.000000 C
   C44        1.0     0.778881      0.220122      0.164347     Biso  1.000000 C
   C45        1.0     0.666893      0.333418      0.166287     Biso  1.000000 C
   C46        1.0     0.777746      0.387059      0.164287     Biso  1.000000 C
   C47        1.0     0.776112      0.551263      0.170030     Biso  1.000000 C
   C48        1.0     0.660924      0.825403      0.169706     Biso  1.000000 C
   C49        1.0     0.773791      0.880308      0.172963     Biso  1.000000 C
   C50        1.0     0.832082      0.994350      0.171922     Biso  1.000000 C
   C51        1.0     0.944953      0.053567      0.173910     Biso  1.000000 C
   C52        1.0     0.834769      0.163854      0.167215     Biso  1.000000 C
   C53        1.0     0.946523      0.220530      0.169286     Biso  1.000000 C
   C54        1.0     0.833477      0.331301      0.163165     Biso  1.000000 C
   C55        1.0     0.944804      0.387275      0.161534     Biso  1.000000 C
   C56        1.0     0.832832      0.498271      0.164347     Biso  1.000000 C
   C57        1.0     0.943734      0.554341      0.159078     Biso  1.000000 C
   C58        1.0     0.833355      0.663918      0.170123     Biso  1.000000 C
   C59        1.0     0.943767      0.719992      0.163730     Biso  1.000000 C
   C60        1.0     0.829859      0.824258      0.174102     Biso  1.000000 C
   C61        1.0     0.942972      0.885421      0.171175     Biso  1.000000 C
   C62        1.0     0.397981      0.369701      0.332640     Biso  1.000000 C
   N1         1.0     0.282176      0.220580      0.178935     Biso  1.000000 N
   N2         1.0     0.279287      0.397783      0.180157     Biso  1.000000 N
   N3         1.0     0.502733      0.333120      0.176153     Biso  1.000000 N
   N4         1.0     0.492608      0.511247      0.190233     Biso  1.000000 N
   N5         1.0     0.601558      0.717512      0.172843     Biso  1.000000 N
   N6         1.0     0.667172      0.499315      0.175210     Biso  1.000000 N
   N7         1.0     0.777581      0.715365      0.175794     Biso  1.000000 N
   Co1        1.0     0.633203      0.609394      0.181074     Biso  1.000000 Co
   Cr1        1.0     0.394936      0.369523      0.212485     Biso  1.000000 Cr
   H1         1.0     0.345494      0.294395      0.365514     Biso  1.000000 H
   H2         1.0     0.445946      0.435653      0.376894     Biso  1.000000 H
