#======================================================================

# CRYSTAL DATA

#----------------------------------------------------------------------

data_VESTA_phase_1


_chemical_name_common                  'CONTCAR\(24)                          '
_cell_length_a                         14.76000
_cell_length_b                         14.76000
_cell_length_c                         15.00000
_cell_angle_alpha                      90
_cell_angle_beta                       90
_cell_angle_gamma                      120
_space_group_name_H-M_alt              'P 1'
_space_group_IT_number                 1

loop_
_space_group_symop_operation_xyz
   'x, y, z'

loop_
   _atom_site_label
   _atom_site_occupancy
   _atom_site_fract_x
   _atom_site_fract_y
   _atom_site_fract_z
   _atom_site_adp_type
   _atom_site_B_iso_or_equiv
   _atom_site_type_symbol
   C1         1.0    -0.002189      0.995691      0.171524     Biso  1.000000 C
   C2         1.0     0.110340      0.053034      0.169738     Biso  1.000000 C
   C3         1.0     0.001630      0.164400      0.172865     Biso  1.000000 C
   C4         1.0     0.115413      0.222799      0.176220     Biso  1.000000 C
   C5         1.0    -0.001152      0.330115      0.164319     Biso  1.000000 C
   C6         1.0     0.110013      0.387566      0.165767     Biso  1.000000 C
   C7         1.0     0.996633      0.496500      0.156148     Biso  1.000000 C
   C8         1.0     0.107143      0.553539      0.153203     Biso  1.000000 C
   C9         1.0     0.997109      0.663046      0.156163     Biso  1.000000 C
   C10        1.0     0.107963      0.720232      0.150731     Biso  1.000000 C
   C11        1.0     0.997396      0.829468      0.163736     Biso  1.000000 C
   C12        1.0     0.108528      0.886331      0.158614     Biso  1.000000 C
   C13        1.0     0.165248      0.997585      0.162695     Biso  1.000000 C
   C14        1.0     0.277083      0.053640      0.160158     Biso  1.000000 C
   C15        1.0     0.170808      0.165637      0.175079     Biso  1.000000 C
   C16        1.0     0.169741      0.335927      0.175192     Biso  1.000000 C
   C17        1.0     0.162295      0.498672      0.159078     Biso  1.000000 C
   C18        1.0     0.272216      0.557047      0.161612     Biso  1.000000 C
   C19        1.0     0.162869      0.664922      0.149016     Biso  1.000000 C
   C20        1.0     0.273632      0.721876      0.148503     Biso  1.000000 C
   C21        1.0     0.164020      0.831264      0.151538     Biso  1.000000 C
   C22        1.0     0.275147      0.887526      0.149229     Biso  1.000000 C
   C23        1.0     0.332170      0.998541      0.153232     Biso  1.000000 C
   C24        1.0     0.443036      0.054271      0.154360     Biso  1.000000 C
   C25        1.0     0.332665      0.164079      0.167688     Biso  1.000000 C
   C26        1.0     0.446258      0.222084      0.167175     Biso  1.000000 C
   C27        1.0     0.326384      0.503200      0.175728     Biso  1.000000 C
   C28        1.0     0.436303      0.560537      0.183696     Biso  1.000000 C
   C29        1.0     0.328181      0.667129      0.155152     Biso  1.000000 C
   C30        1.0     0.438685      0.723649      0.160722     Biso  1.000000 C
   C31        1.0     0.330512      0.832752      0.147779     Biso  1.000000 C
   C32        1.0     0.442000      0.888726      0.151124     Biso  1.000000 C
   C33        1.0     0.498806      0.999163      0.153426     Biso  1.000000 C
   C34        1.0     0.609874      0.052737      0.158544     Biso  1.000000 C
   C35        1.0     0.499073      0.165167      0.160366     Biso  1.000000 C
   C36        1.0     0.610434      0.220562      0.161654     Biso  1.000000 C
   C37        1.0     0.609255      0.389049      0.172022     Biso  1.000000 C
   C38        1.0     0.492139      0.669679      0.173758     Biso  1.000000 C
   C39        1.0     0.496742      0.833472      0.157255     Biso  1.000000 C
   C40        1.0     0.607483      0.884605      0.163970     Biso  1.000000 C
   C41        1.0     0.664744      0.996034      0.163009     Biso  1.000000 C
   C42        1.0     0.776115      0.050338      0.167665     Biso  1.000000 C
   C43        1.0     0.665826      0.164227      0.160692     Biso  1.000000 C
   C44        1.0     0.776917      0.218367      0.162948     Biso  1.000000 C
   C45        1.0     0.664972      0.331849      0.165035     Biso  1.000000 C
   C46        1.0     0.775914      0.385319      0.163117     Biso  1.000000 C
   C47        1.0     0.774184      0.549524      0.169676     Biso  1.000000 C
   C48        1.0     0.658889      0.824037      0.172000     Biso  1.000000 C
   C49        1.0     0.771827      0.878640      0.173267     Biso  1.000000 C
   C50        1.0     0.830071      0.992628      0.171574     Biso  1.000000 C
   C51        1.0     0.942716      0.051424      0.172946     Biso  1.000000 C
   C52        1.0     0.832624      0.162024      0.166238     Biso  1.000000 C
   C53        1.0     0.944425      0.218658      0.168450     Biso  1.000000 C
   C54        1.0     0.831516      0.329528      0.161782     Biso  1.000000 C
   C55        1.0     0.942790      0.385458      0.160368     Biso  1.000000 C
   C56        1.0     0.830817      0.496343      0.163379     Biso  1.000000 C
   C57        1.0     0.941671      0.552349      0.157640     Biso  1.000000 C
   C58        1.0     0.831227      0.661733      0.169393     Biso  1.000000 C
   C59        1.0     0.941523      0.717763      0.162469     Biso  1.000000 C
   C60        1.0     0.827673      0.822374      0.173564     Biso  1.000000 C
   C61        1.0     0.940526      0.883065      0.170123     Biso  1.000000 C
   C62        1.0     0.428685      0.412807      0.398647     Biso  1.000000 C
   N1         1.0     0.278556      0.216780      0.176791     Biso  1.000000 N
   N2         1.0     0.276930      0.395987      0.182289     Biso  1.000000 N
   N3         1.0     0.500674      0.331171      0.175481     Biso  1.000000 N
   N4         1.0     0.492429      0.511846      0.198692     Biso  1.000000 N
   N5         1.0     0.599569      0.716479      0.177761     Biso  1.000000 N
   N6         1.0     0.665203      0.497986      0.176052     Biso  1.000000 N
   N7         1.0     0.775322      0.713296      0.175239     Biso  1.000000 N
   Co1        1.0     0.632415      0.609595      0.184196     Biso  1.000000 Co
   Cr1        1.0     0.389608      0.363462      0.209098     Biso  1.000000 Cr
   O1         1.0     0.376725      0.342728      0.342714     Biso  1.000000 O
   O2         1.0     0.502277      0.507996      0.381039     Biso  1.000000 O
   H1         1.0     0.413286      0.395953      0.470244     Biso  1.000000 H
   H2         1.0     0.512320      0.518955      0.312204     Biso  1.000000 H
