#======================================================================

# CRYSTAL DATA

#----------------------------------------------------------------------

data_VESTA_phase_1


_chemical_name_common                  'poscar\(25)                           '
_cell_length_a                         14.76000
_cell_length_b                         14.76000
_cell_length_c                         15.00000
_cell_angle_alpha                      90
_cell_angle_beta                       90
_cell_angle_gamma                      120
_space_group_name_H-M_alt              'P 1'
_space_group_IT_number                 1

loop_
_space_group_symop_operation_xyz
   'x, y, z'

loop_
   _atom_site_label
   _atom_site_occupancy
   _atom_site_fract_x
   _atom_site_fract_y
   _atom_site_fract_z
   _atom_site_adp_type
   _atom_site_B_iso_or_equiv
   _atom_site_type_symbol
   C1         1.0     0.000197      0.998129      0.167651     Biso  1.000000 C
   C2         1.0     0.112760      0.055576      0.166569     Biso  1.000000 C
   C3         1.0     0.003754      0.166336      0.168882     Biso  1.000000 C
   C4         1.0     0.117570      0.224815      0.170827     Biso  1.000000 C
   C5         1.0     0.000678      0.332067      0.165418     Biso  1.000000 C
   C6         1.0     0.111801      0.389490      0.166312     Biso  1.000000 C
   C7         1.0     0.998627      0.498608      0.161999     Biso  1.000000 C
   C8         1.0     0.108987      0.555624      0.161159     Biso  1.000000 C
   C9         1.0     0.999287      0.665182      0.161691     Biso  1.000000 C
   C10        1.0     0.110136      0.722257      0.160059     Biso  1.000000 C
   C11        1.0     0.999553      0.831797      0.164375     Biso  1.000000 C
   C12        1.0     0.110844      0.888613      0.162445     Biso  1.000000 C
   C13        1.0     0.167591     -0.000144      0.163538     Biso  1.000000 C
   C14        1.0     0.279484      0.055897      0.162121     Biso  1.000000 C
   C15        1.0     0.173406      0.168435      0.168955     Biso  1.000000 C
   C16        1.0     0.171681      0.337851      0.171252     Biso  1.000000 C
   C17        1.0     0.163981      0.500636      0.163386     Biso  1.000000 C
   C18        1.0     0.273839      0.558845      0.163588     Biso  1.000000 C
   C19        1.0     0.164833      0.666955      0.159608     Biso  1.000000 C
   C20        1.0     0.275530      0.723916      0.159099     Biso  1.000000 C
   C21        1.0     0.166229      0.833280      0.160191     Biso  1.000000 C
   C22        1.0     0.277221      0.889431      0.159229     Biso  1.000000 C
   C23        1.0     0.334406      0.000411      0.160080     Biso  1.000000 C
   C24        1.0     0.445171      0.055906      0.160176     Biso  1.000000 C
   C25        1.0     0.335272      0.166544      0.164648     Biso  1.000000 C
   C26        1.0     0.448649      0.223955      0.165007     Biso  1.000000 C
   C27        1.0     0.327913      0.504540      0.169966     Biso  1.000000 C
   C28        1.0     0.438393      0.561365      0.171181     Biso  1.000000 C
   C29        1.0     0.330125      0.669284      0.160922     Biso  1.000000 C
   C30        1.0     0.440609      0.725518      0.162508     Biso  1.000000 C
   C31        1.0     0.332469      0.834648      0.158721     Biso  1.000000 C
   C32        1.0     0.443825      0.890423      0.159396     Biso  1.000000 C
   C33        1.0     0.500804      0.000819      0.160137     Biso  1.000000 C
   C34        1.0     0.611840      0.054424      0.162093     Biso  1.000000 C
   C35        1.0     0.501322      0.166877      0.162286     Biso  1.000000 C
   C36        1.0     0.612638      0.222217      0.163265     Biso  1.000000 C
   C37        1.0     0.611592      0.390740      0.167644     Biso  1.000000 C
   C38        1.0     0.494425      0.671058      0.166676     Biso  1.000000 C
   C39        1.0     0.498712      0.835295      0.161230     Biso  1.000000 C
   C40        1.0     0.609566      0.886435      0.163650     Biso  1.000000 C
   C41        1.0     0.666828      0.997834      0.163629     Biso  1.000000 C
   C42        1.0     0.778248      0.052186      0.165780     Biso  1.000000 C
   C43        1.0     0.667869      0.165931      0.163103     Biso  1.000000 C
   C44        1.0     0.778964      0.220208      0.164353     Biso  1.000000 C
   C45        1.0     0.667333      0.333493      0.164406     Biso  1.000000 C
   C46        1.0     0.778013      0.387165      0.163808     Biso  1.000000 C
   C47        1.0     0.776196      0.551432      0.166574     Biso  1.000000 C
   C48        1.0     0.660958      0.825626      0.166735     Biso  1.000000 C
   C49        1.0     0.773806      0.880487      0.167943     Biso  1.000000 C
   C50        1.0     0.832140      0.994408      0.167401     Biso  1.000000 C
   C51        1.0     0.944918      0.053563      0.168336     Biso  1.000000 C
   C52        1.0     0.834756      0.163907      0.165746     Biso  1.000000 C
   C53        1.0     0.946413      0.220543      0.167018     Biso  1.000000 C
   C54        1.0     0.833569      0.331349      0.163717     Biso  1.000000 C
   C55        1.0     0.944733      0.387394      0.163573     Biso  1.000000 C
   C56        1.0     0.832893      0.498308      0.164001     Biso  1.000000 C
   C57        1.0     0.943797      0.554444      0.162223     Biso  1.000000 C
   C58        1.0     0.833326      0.663989      0.166725     Biso  1.000000 C
   C59        1.0     0.943784      0.720090      0.163871     Biso  1.000000 C
   C60        1.0     0.829808      0.824377      0.168552     Biso  1.000000 C
   C61        1.0     0.942788      0.885472      0.166994     Biso  1.000000 C
   C62        1.0     0.398899      0.372209      0.329965     Biso  1.000000 C
   N1         1.0     0.281506      0.220230      0.169070     Biso  1.000000 N
   N2         1.0     0.278652      0.397604      0.175893     Biso  1.000000 N
   N3         1.0     0.503533      0.333098      0.170128     Biso  1.000000 N
   N4         1.0     0.494102      0.511967      0.177777     Biso  1.000000 N
   N5         1.0     0.601628      0.717718      0.168267     Biso  1.000000 N
   N6         1.0     0.667320      0.499501      0.168947     Biso  1.000000 N
   N7         1.0     0.777596      0.715546      0.169516     Biso  1.000000 N
   Co1        1.0     0.633501      0.609823      0.171935     Biso  1.000000 Co
   Cr1        1.0     0.394628      0.369026      0.195378     Biso  1.000000 Cr
   H1         1.0     0.379724      0.430864      0.354494     Biso  1.000000 H
   H2         1.0     0.339687      0.293682      0.353161     Biso  1.000000 H
   H3         1.0     0.477193      0.391396      0.352998     Biso  1.000000 H
