#======================================================================

# CRYSTAL DATA

#----------------------------------------------------------------------

data_VESTA_phase_1


_chemical_name_common                  'POSCAR\(15)                           '
_cell_length_a                         14.76000
_cell_length_b                         14.76000
_cell_length_c                         15.00000
_cell_angle_alpha                      90
_cell_angle_beta                       90
_cell_angle_gamma                      120
_space_group_name_H-M_alt              'P 1'
_space_group_IT_number                 1

loop_
_space_group_symop_operation_xyz
   'x, y, z'

loop_
   _atom_site_label
   _atom_site_occupancy
   _atom_site_fract_x
   _atom_site_fract_y
   _atom_site_fract_z
   _atom_site_adp_type
   _atom_site_B_iso_or_equiv
   _atom_site_type_symbol
   C1         1.0    -0.000032      0.998430      0.170629     Biso  1.000000 C
   C2         1.0     0.112744      0.056232      0.169957     Biso  1.000000 C
   C3         1.0     0.003181      0.166308      0.170508     Biso  1.000000 C
   C4         1.0     0.117172      0.225006      0.172655     Biso  1.000000 C
   C5         1.0     0.000255      0.331987      0.164891     Biso  1.000000 C
   C6         1.0     0.111374      0.389436      0.164992     Biso  1.000000 C
   C7         1.0     0.998159      0.498566      0.161741     Biso  1.000000 C
   C8         1.0     0.108510      0.555635      0.159152     Biso  1.000000 C
   C9         1.0    -0.001156      0.665209      0.163342     Biso  1.000000 C
   C10        1.0     0.109705      0.722411      0.159933     Biso  1.000000 C
   C11        1.0    -0.000747      0.831869      0.167542     Biso  1.000000 C
   C12        1.0     0.110486      0.888812      0.164590     Biso  1.000000 C
   C13        1.0     0.167206      0.000166      0.166356     Biso  1.000000 C
   C14        1.0     0.279032      0.056214      0.164968     Biso  1.000000 C
   C15        1.0     0.173552      0.169287      0.172290     Biso  1.000000 C
   C16        1.0     0.171317      0.337876      0.171326     Biso  1.000000 C
   C17        1.0     0.163489      0.500564      0.160732     Biso  1.000000 C
   C18        1.0     0.273245      0.558575      0.159721     Biso  1.000000 C
   C19        1.0     0.164365      0.667011      0.157630     Biso  1.000000 C
   C20        1.0     0.275023      0.723798      0.156136     Biso  1.000000 C
   C21        1.0     0.165818      0.833435      0.160671     Biso  1.000000 C
   C22        1.0     0.276823      0.889525      0.159123     Biso  1.000000 C
   C23        1.0     0.333850      0.000585      0.161497     Biso  1.000000 C
   C24        1.0     0.444605      0.055976      0.161965     Biso  1.000000 C
   C25        1.0     0.335067      0.167026      0.169249     Biso  1.000000 C
   C26        1.0     0.448012      0.224015      0.170844     Biso  1.000000 C
   C27        1.0     0.327336      0.504142      0.166685     Biso  1.000000 C
   C28        1.0     0.437397      0.560275      0.167200     Biso  1.000000 C
   C29        1.0     0.329554      0.668877      0.156772     Biso  1.000000 C
   C30        1.0     0.440113      0.724928      0.158823     Biso  1.000000 C
   C31        1.0     0.331948      0.834573      0.157038     Biso  1.000000 C
   C32        1.0     0.443359      0.890266      0.158170     Biso  1.000000 C
   C33        1.0     0.500163      0.000671      0.160546     Biso  1.000000 C
   C34        1.0     0.611230      0.054200      0.162804     Biso  1.000000 C
   C35        1.0     0.500710      0.166894      0.165982     Biso  1.000000 C
   C36        1.0     0.611983      0.222016      0.166688     Biso  1.000000 C
   C37        1.0     0.610875      0.390584      0.173908     Biso  1.000000 C
   C38        1.0     0.493855      0.670155      0.163157     Biso  1.000000 C
   C39        1.0     0.498173      0.834846      0.159334     Biso  1.000000 C
   C40        1.0     0.609049      0.886005      0.163015     Biso  1.000000 C
   C41        1.0     0.666174      0.997483      0.163920     Biso  1.000000 C
   C42        1.0     0.777615      0.051986      0.166772     Biso  1.000000 C
   C43        1.0     0.667262      0.165731      0.164821     Biso  1.000000 C
   C44        1.0     0.778450      0.220065      0.165452     Biso  1.000000 C
   C45        1.0     0.666617      0.333340      0.169025     Biso  1.000000 C
   C46        1.0     0.777479      0.387059      0.167012     Biso  1.000000 C
   C47        1.0     0.775883      0.551375      0.171742     Biso  1.000000 C
   C48        1.0     0.660424      0.825088      0.166505     Biso  1.000000 C
   C49        1.0     0.773313      0.880253      0.169693     Biso  1.000000 C
   C50        1.0     0.831511      0.994246      0.169187     Biso  1.000000 C
   C51        1.0     0.944362      0.053558      0.170656     Biso  1.000000 C
   C52        1.0     0.834182      0.163740      0.166482     Biso  1.000000 C
   C53        1.0     0.945913      0.220469      0.167551     Biso  1.000000 C
   C54        1.0     0.833022      0.331254      0.164975     Biso  1.000000 C
   C55        1.0     0.944258      0.387348      0.163410     Biso  1.000000 C
   C56        1.0     0.832494      0.498210      0.167877     Biso  1.000000 C
   C57        1.0     0.943362      0.554411      0.164003     Biso  1.000000 C
   C58        1.0     0.832836      0.663911      0.171164     Biso  1.000000 C
   C59        1.0     0.943340      0.720094      0.167126     Biso  1.000000 C
   C60        1.0     0.829399      0.824348      0.171586     Biso  1.000000 C
   C61        1.0     0.942524      0.885619      0.170305     Biso  1.000000 C
   N1         1.0     0.282105      0.221581      0.173313     Biso  1.000000 N
   N2         1.0     0.278325      0.397581      0.175555     Biso  1.000000 N
   N3         1.0     0.502465      0.333102      0.178449     Biso  1.000000 N
   N4         1.0     0.492021      0.509677      0.175054     Biso  1.000000 N
   N5         1.0     0.601100      0.717042      0.166808     Biso  1.000000 N
   N6         1.0     0.666815      0.499320      0.174594     Biso  1.000000 N
   N7         1.0     0.776923      0.715374      0.173433     Biso  1.000000 N
   Co1        1.0     0.632613      0.608634      0.173530     Biso  1.000000 Co
   Cr1        1.0     0.394032      0.370372      0.207355     Biso  1.000000 Cr
   O1         1.0     0.390154      0.374519      0.328018     Biso  1.000000 O
   H1         1.0     0.454929      0.390356      0.358400     Biso  1.000000 H
