#======================================================================

# CRYSTAL DATA

#----------------------------------------------------------------------

data_VESTA_phase_1


_chemical_name_common                  'cho-contacar-again                    '
_cell_length_a                         14.76000
_cell_length_b                         14.76000
_cell_length_c                         15.00000
_cell_angle_alpha                      90
_cell_angle_beta                       90
_cell_angle_gamma                      120
_space_group_name_H-M_alt              'P 1'
_space_group_IT_number                 1

loop_
_space_group_symop_operation_xyz
   'x, y, z'

loop_
   _atom_site_label
   _atom_site_occupancy
   _atom_site_fract_x
   _atom_site_fract_y
   _atom_site_fract_z
   _atom_site_adp_type
   _atom_site_B_iso_or_equiv
   _atom_site_type_symbol
   C1         1.0     0.000865      0.998091      0.169899     Biso  1.000000 C
   C2         1.0     0.113575      0.055684      0.169568     Biso  1.000000 C
   C3         1.0     0.004915      0.166471      0.168244     Biso  1.000000 C
   C4         1.0     0.118847      0.225036      0.169722     Biso  1.000000 C
   C5         1.0     0.001537      0.331965      0.164096     Biso  1.000000 C
   C6         1.0     0.112941      0.389418      0.162871     Biso  1.000000 C
   C7         1.0     0.998783      0.498375      0.162810     Biso  1.000000 C
   C8         1.0     0.109143      0.555308      0.159482     Biso  1.000000 C
   C9         1.0     0.999438      0.664769      0.165663     Biso  1.000000 C
   C10        1.0     0.110316      0.721812      0.162167     Biso  1.000000 C
   C11        1.0     0.999812      0.831334      0.169295     Biso  1.000000 C
   C12        1.0     0.111145      0.888136      0.166984     Biso  1.000000 C
   C13        1.0     0.167925      0.999415      0.167892     Biso  1.000000 C
   C14        1.0     0.279694      0.055282      0.166498     Biso  1.000000 C
   C15        1.0     0.174912      0.168774      0.170169     Biso  1.000000 C
   C16        1.0     0.173787      0.338227      0.167350     Biso  1.000000 C
   C17        1.0     0.164266      0.500283      0.159256     Biso  1.000000 C
   C18        1.0     0.274019      0.558366      0.157353     Biso  1.000000 C
   C19        1.0     0.165076      0.666598      0.158568     Biso  1.000000 C
   C20        1.0     0.275818      0.723483      0.156127     Biso  1.000000 C
   C21        1.0     0.166518      0.832845      0.163229     Biso  1.000000 C
   C22        1.0     0.277526      0.888987      0.161002     Biso  1.000000 C
   C23        1.0     0.334653      0.999871      0.163131     Biso  1.000000 C
   C24        1.0     0.445469      0.055531      0.162661     Biso  1.000000 C
   C25        1.0     0.335607      0.166050      0.168797     Biso  1.000000 C
   C26        1.0     0.448818      0.223597      0.169429     Biso  1.000000 C
   C27        1.0     0.328400      0.504344      0.162281     Biso  1.000000 C
   C28        1.0     0.438458      0.560610      0.163546     Biso  1.000000 C
   C29        1.0     0.330410      0.668806      0.155256     Biso  1.000000 C
   C30        1.0     0.440912      0.724914      0.156635     Biso  1.000000 C
   C31        1.0     0.332804      0.834186      0.157673     Biso  1.000000 C
   C32        1.0     0.444136      0.889958      0.158086     Biso  1.000000 C
   C33        1.0     0.501112      0.000451      0.160723     Biso  1.000000 C
   C34        1.0     0.612249      0.054035      0.162488     Biso  1.000000 C
   C35        1.0     0.501637      0.166596      0.165853     Biso  1.000000 C
   C36        1.0     0.612777      0.221661      0.166547     Biso  1.000000 C
   C37        1.0     0.609978      0.389616      0.172163     Biso  1.000000 C
   C38        1.0     0.494808      0.670164      0.160150     Biso  1.000000 C
   C39        1.0     0.499029      0.834680      0.158010     Biso  1.000000 C
   C40        1.0     0.610019      0.885882      0.161317     Biso  1.000000 C
   C41        1.0     0.667347      0.997431      0.162924     Biso  1.000000 C
   C42        1.0     0.778695      0.051905      0.165416     Biso  1.000000 C
   C43        1.0     0.668246      0.165442      0.164789     Biso  1.000000 C
   C44        1.0     0.779341      0.219887      0.165523     Biso  1.000000 C
   C45        1.0     0.666753      0.332832      0.168950     Biso  1.000000 C
   C46        1.0     0.777737      0.386675      0.167928     Biso  1.000000 C
   C47        1.0     0.775792      0.550835      0.171865     Biso  1.000000 C
   C48        1.0     0.661374      0.825092      0.164352     Biso  1.000000 C
   C49        1.0     0.774135      0.880279      0.167855     Biso  1.000000 C
   C50        1.0     0.832717      0.994242      0.167244     Biso  1.000000 C
   C51        1.0     0.945640      0.053537      0.168764     Biso  1.000000 C
   C52        1.0     0.835435      0.163804      0.165696     Biso  1.000000 C
   C53        1.0     0.947152      0.220501      0.166290     Biso  1.000000 C
   C54        1.0     0.833742      0.331056      0.165890     Biso  1.000000 C
   C55        1.0     0.945088      0.387129      0.164053     Biso  1.000000 C
   C56        1.0     0.832679      0.497888      0.168951     Biso  1.000000 C
   C57        1.0     0.943770      0.554068      0.165707     Biso  1.000000 C
   C58        1.0     0.833268      0.663684      0.171693     Biso  1.000000 C
   C59        1.0     0.943884      0.719671      0.169118     Biso  1.000000 C
   C60        1.0     0.830122      0.823939      0.170699     Biso  1.000000 C
   C61        1.0     0.943236      0.885257      0.170444     Biso  1.000000 C
   C62        1.0     0.395646      0.381813      0.309532     Biso  1.000000 C
   N1         1.0     0.283212      0.220583      0.170665     Biso  1.000000 N
   N2         1.0     0.281338      0.398010      0.169416     Biso  1.000000 N
   N3         1.0     0.501629      0.332572      0.174326     Biso  1.000000 N
   N4         1.0     0.491020      0.508190      0.171794     Biso  1.000000 N
   N5         1.0     0.601776      0.716839      0.164182     Biso  1.000000 N
   N6         1.0     0.666588      0.498707      0.173216     Biso  1.000000 N
   N7         1.0     0.777916      0.715506      0.172589     Biso  1.000000 N
   Co1        1.0     0.631516      0.606494      0.171515     Biso  1.000000 Co
   Fe1        1.0     0.394243      0.369458      0.186822     Biso  1.000000 Fe
   O1         1.0     0.431560      0.454068      0.361835     Biso  1.000000 O
   H1         1.0     0.348079      0.298168      0.333188     Biso  1.000000 H
