#======================================================================

# CRYSTAL DATA

#----------------------------------------------------------------------

data_VESTA_phase_1


_chemical_name_common                  'POSCAR\(10)                           '
_cell_length_a                         14.76000
_cell_length_b                         14.76000
_cell_length_c                         15.00000
_cell_angle_alpha                      90
_cell_angle_beta                       90
_cell_angle_gamma                      120
_space_group_name_H-M_alt              'P 1'
_space_group_IT_number                 1

loop_
_space_group_symop_operation_xyz
   'x, y, z'

loop_
   _atom_site_label
   _atom_site_occupancy
   _atom_site_fract_x
   _atom_site_fract_y
   _atom_site_fract_z
   _atom_site_adp_type
   _atom_site_B_iso_or_equiv
   _atom_site_type_symbol
   C1         1.0     0.000606      0.998898      0.167144     Biso  1.000000 C
   C2         1.0     0.113354      0.056421      0.167316     Biso  1.000000 C
   C3         1.0     0.004420      0.167162      0.167731     Biso  1.000000 C
   C4         1.0     0.118456      0.225681      0.167786     Biso  1.000000 C
   C5         1.0     0.001140      0.332747      0.165013     Biso  1.000000 C
   C6         1.0     0.112615      0.390120      0.164020     Biso  1.000000 C
   C7         1.0     0.998531      0.499121      0.162382     Biso  1.000000 C
   C8         1.0     0.108988      0.556100      0.160807     Biso  1.000000 C
   C9         1.0     0.999132      0.665594      0.161670     Biso  1.000000 C
   C10        1.0     0.110063      0.722669      0.161110     Biso  1.000000 C
   C11        1.0    -0.000404      0.832206      0.163635     Biso  1.000000 C
   C12        1.0     0.110885      0.888959      0.163813     Biso  1.000000 C
   C13        1.0     0.167548      0.000048      0.165934     Biso  1.000000 C
   C14        1.0     0.279321      0.055759      0.166946     Biso  1.000000 C
   C15        1.0     0.174296      0.169286      0.168354     Biso  1.000000 C
   C16        1.0     0.172977      0.338528      0.166613     Biso  1.000000 C
   C17        1.0     0.164166      0.501231      0.161414     Biso  1.000000 C
   C18        1.0     0.273997      0.559550      0.161091     Biso  1.000000 C
   C19        1.0     0.164876      0.667479      0.160228     Biso  1.000000 C
   C20        1.0     0.275613      0.724432      0.160319     Biso  1.000000 C
   C21        1.0     0.166173      0.833648      0.162424     Biso  1.000000 C
   C22        1.0     0.277199      0.889676      0.163182     Biso  1.000000 C
   C23        1.0     0.334324      0.000444      0.165776     Biso  1.000000 C
   C24        1.0     0.445078      0.056094      0.167387     Biso  1.000000 C
   C25        1.0     0.335375      0.166157      0.169125     Biso  1.000000 C
   C26        1.0     0.448016      0.223544      0.170374     Biso  1.000000 C
   C27        1.0     0.328487      0.505775      0.164690     Biso  1.000000 C
   C28        1.0     0.438519      0.562062      0.167357     Biso  1.000000 C
   C29        1.0     0.330371      0.669990      0.160454     Biso  1.000000 C
   C30        1.0     0.440833      0.726199      0.163039     Biso  1.000000 C
   C31        1.0     0.332541      0.835068      0.162160     Biso  1.000000 C
   C32        1.0     0.443851      0.890890      0.164168     Biso  1.000000 C
   C33        1.0     0.500798      0.001166      0.166738     Biso  1.000000 C
   C34        1.0     0.611949      0.055004      0.168381     Biso  1.000000 C
   C35        1.0     0.501229      0.167080      0.169557     Biso  1.000000 C
   C36        1.0     0.612451      0.222643      0.169731     Biso  1.000000 C
   C37        1.0     0.609937      0.390911      0.170290     Biso  1.000000 C
   C38        1.0     0.495006      0.671903      0.166552     Biso  1.000000 C
   C39        1.0     0.498879      0.835879      0.164680     Biso  1.000000 C
   C40        1.0     0.609801      0.887107      0.167505     Biso  1.000000 C
   C41        1.0     0.667049      0.998492      0.168484     Biso  1.000000 C
   C42        1.0     0.778493      0.052882      0.168989     Biso  1.000000 C
   C43        1.0     0.667884      0.166526      0.169252     Biso  1.000000 C
   C44        1.0     0.779070      0.220915      0.168343     Biso  1.000000 C
   C45        1.0     0.666452      0.333960      0.169260     Biso  1.000000 C
   C46        1.0     0.777481      0.387764      0.167119     Biso  1.000000 C
   C47        1.0     0.775795      0.552092      0.165863     Biso  1.000000 C
   C48        1.0     0.661478      0.826416      0.169871     Biso  1.000000 C
   C49        1.0     0.774259      0.881239      0.169512     Biso  1.000000 C
   C50        1.0     0.832477      0.995168      0.168946     Biso  1.000000 C
   C51        1.0     0.945359      0.054347      0.168118     Biso  1.000000 C
   C52        1.0     0.835019      0.164667      0.168294     Biso  1.000000 C
   C53        1.0     0.946845      0.221306      0.167097     Biso  1.000000 C
   C54        1.0     0.833438      0.332062      0.166795     Biso  1.000000 C
   C55        1.0     0.944792      0.387959      0.164533     Biso  1.000000 C
   C56        1.0     0.832474      0.498844      0.164748     Biso  1.000000 C
   C57        1.0     0.943552      0.554870      0.162468     Biso  1.000000 C
   C58        1.0     0.833061      0.664817      0.163921     Biso  1.000000 C
   C59        1.0     0.943727      0.720628      0.162579     Biso  1.000000 C
   C60        1.0     0.830090      0.824887      0.166946     Biso  1.000000 C
   C61        1.0     0.943202      0.886214      0.165670     Biso  1.000000 C
   C62        1.0     0.640395      0.608871      0.308851     Biso  1.000000 C
   N1         1.0     0.282847      0.221197      0.169083     Biso  1.000000 N
   N2         1.0     0.281091      0.398621      0.168016     Biso  1.000000 N
   N3         1.0     0.500883      0.333145      0.171124     Biso  1.000000 N
   N4         1.0     0.490862      0.509491      0.173825     Biso  1.000000 N
   N5         1.0     0.601733      0.718667      0.171250     Biso  1.000000 N
   N6         1.0     0.666744      0.499790      0.169961     Biso  1.000000 N
   N7         1.0     0.778139      0.716753      0.165256     Biso  1.000000 N
   Co1        1.0     0.633273      0.609451      0.181143     Biso  1.000000 Co
   Fe1        1.0     0.391814      0.367532      0.168679     Biso  1.000000 Fe
   O1         1.0     0.550094      0.541417      0.350928     Biso  1.000000 O
   O2         1.0     0.719963      0.663882      0.349855     Biso  1.000000 O
   H1         1.0     0.498818      0.503629      0.302966     Biso  1.000000 H
