#======================================================================

# CRYSTAL DATA

#----------------------------------------------------------------------

data_VESTA_phase_1


_chemical_name_common                  'contcar\(11)                          '
_cell_length_a                         14.76000
_cell_length_b                         14.76000
_cell_length_c                         15.00000
_cell_angle_alpha                      90
_cell_angle_beta                       90
_cell_angle_gamma                      120
_space_group_name_H-M_alt              'P 1'
_space_group_IT_number                 1

loop_
_space_group_symop_operation_xyz
   'x, y, z'

loop_
   _atom_site_label
   _atom_site_occupancy
   _atom_site_fract_x
   _atom_site_fract_y
   _atom_site_fract_z
   _atom_site_adp_type
   _atom_site_B_iso_or_equiv
   _atom_site_type_symbol
   C1         1.0     0.001052      0.998947      0.169972     Biso  1.000000 C
   C2         1.0     0.113840      0.056576      0.170355     Biso  1.000000 C
   C3         1.0     0.004827      0.167108      0.168193     Biso  1.000000 C
   C4         1.0     0.118947      0.225697      0.168566     Biso  1.000000 C
   C5         1.0     0.001472      0.332619      0.162914     Biso  1.000000 C
   C6         1.0     0.113057      0.389988      0.161157     Biso  1.000000 C
   C7         1.0     0.998717      0.499002      0.159753     Biso  1.000000 C
   C8         1.0     0.109225      0.555905      0.157225     Biso  1.000000 C
   C9         1.0     0.999336      0.665564      0.161014     Biso  1.000000 C
   C10        1.0     0.110390      0.722583      0.160002     Biso  1.000000 C
   C11        1.0    -0.000126      0.832072      0.166416     Biso  1.000000 C
   C12        1.0     0.111294      0.888923      0.166277     Biso  1.000000 C
   C13        1.0     0.167917     -0.000006      0.169199     Biso  1.000000 C
   C14        1.0     0.279651      0.055727      0.170022     Biso  1.000000 C
   C15        1.0     0.174901      0.169446      0.170898     Biso  1.000000 C
   C16        1.0     0.173505      0.338558      0.165030     Biso  1.000000 C
   C17        1.0     0.164480      0.501093      0.157212     Biso  1.000000 C
   C18        1.0     0.274481      0.559333      0.155116     Biso  1.000000 C
   C19        1.0     0.165172      0.667384      0.157182     Biso  1.000000 C
   C20        1.0     0.275971      0.724357      0.156398     Biso  1.000000 C
   C21        1.0     0.166526      0.833577      0.163057     Biso  1.000000 C
   C22        1.0     0.277533      0.889616      0.163486     Biso  1.000000 C
   C23        1.0     0.334597      0.000300      0.167653     Biso  1.000000 C
   C24        1.0     0.445406      0.055851      0.168343     Biso  1.000000 C
   C25        1.0     0.335839      0.166109      0.172490     Biso  1.000000 C
   C26        1.0     0.448322      0.223244      0.173043     Biso  1.000000 C
   C27        1.0     0.328898      0.505563      0.159106     Biso  1.000000 C
   C28        1.0     0.439391      0.561997      0.161241     Biso  1.000000 C
   C29        1.0     0.330923      0.670034      0.154459     Biso  1.000000 C
   C30        1.0     0.441204      0.726193      0.156708     Biso  1.000000 C
   C31        1.0     0.332836      0.834936      0.160022     Biso  1.000000 C
   C32        1.0     0.444114      0.890678      0.161607     Biso  1.000000 C
   C33        1.0     0.501068      0.000942      0.165609     Biso  1.000000 C
   C34        1.0     0.612221      0.054787      0.166642     Biso  1.000000 C
   C35        1.0     0.501601      0.166854      0.170826     Biso  1.000000 C
   C36        1.0     0.612726      0.222294      0.169463     Biso  1.000000 C
   C37        1.0     0.610055      0.390382      0.171895     Biso  1.000000 C
   C38        1.0     0.495753      0.671788      0.159641     Biso  1.000000 C
   C39        1.0     0.499132      0.835625      0.160387     Biso  1.000000 C
   C40        1.0     0.610111      0.886933      0.164284     Biso  1.000000 C
   C41        1.0     0.667378      0.998313      0.166163     Biso  1.000000 C
   C42        1.0     0.778773      0.052689      0.167811     Biso  1.000000 C
   C43        1.0     0.668164      0.166254      0.167878     Biso  1.000000 C
   C44        1.0     0.779415      0.220652      0.166571     Biso  1.000000 C
   C45        1.0     0.666601      0.333695      0.169164     Biso  1.000000 C
   C46        1.0     0.777663      0.387516      0.165791     Biso  1.000000 C
   C47        1.0     0.775516      0.551767      0.166575     Biso  1.000000 C
   C48        1.0     0.661657      0.826372      0.167636     Biso  1.000000 C
   C49        1.0     0.774384      0.881119      0.170626     Biso  1.000000 C
   C50        1.0     0.832786      0.995115      0.169525     Biso  1.000000 C
   C51        1.0     0.945751      0.054351      0.169721     Biso  1.000000 C
   C52        1.0     0.835371      0.164576      0.166862     Biso  1.000000 C
   C53        1.0     0.947197      0.221186      0.166149     Biso  1.000000 C
   C54        1.0     0.833670      0.331819      0.164691     Biso  1.000000 C
   C55        1.0     0.945003      0.387764      0.162062     Biso  1.000000 C
   C56        1.0     0.832543      0.498582      0.163981     Biso  1.000000 C
   C57        1.0     0.943622      0.554696      0.160976     Biso  1.000000 C
   C58        1.0     0.833020      0.664473      0.166618     Biso  1.000000 C
   C59        1.0     0.944025      0.720566      0.163940     Biso  1.000000 C
   C60        1.0     0.830469      0.824873      0.171138     Biso  1.000000 C
   C61        1.0     0.943625      0.886231      0.169173     Biso  1.000000 C
   C62        1.0     0.626011      0.604791      0.309225     Biso  1.000000 C
   N1         1.0     0.283628      0.221487      0.172682     Biso  1.000000 N
   N2         1.0     0.281772      0.398737      0.165542     Biso  1.000000 N
   N3         1.0     0.500982      0.332881      0.174519     Biso  1.000000 N
   N4         1.0     0.490984      0.509429      0.169937     Biso  1.000000 N
   N5         1.0     0.601887      0.718346      0.166574     Biso  1.000000 N
   N6         1.0     0.666651      0.499328      0.170860     Biso  1.000000 N
   N7         1.0     0.778486      0.716588      0.171882     Biso  1.000000 N
   Co1        1.0     0.631753      0.608228      0.193019     Biso  1.000000 Co
   Fe1        1.0     0.392732      0.367973      0.174910     Biso  1.000000 Fe
   O1         1.0     0.615874      0.598222      0.386414     Biso  1.000000 O
