#======================================================================

# CRYSTAL DATA

#----------------------------------------------------------------------

data_VESTA_phase_1


_chemical_name_common                  'contcar\(87)                          '
_cell_length_a                         14.76000
_cell_length_b                         14.76000
_cell_length_c                         15.00000
_cell_angle_alpha                      90
_cell_angle_beta                       90
_cell_angle_gamma                      120
_space_group_name_H-M_alt              'P 1'
_space_group_IT_number                 1

loop_
_space_group_symop_operation_xyz
   'x, y, z'

loop_
   _atom_site_label
   _atom_site_occupancy
   _atom_site_fract_x
   _atom_site_fract_y
   _atom_site_fract_z
   _atom_site_adp_type
   _atom_site_B_iso_or_equiv
   _atom_site_type_symbol
   C1         1.0     0.001071      0.998934      0.171221     Biso  1.000000 C
   C2         1.0     0.113898      0.056558      0.170657     Biso  1.000000 C
   C3         1.0     0.004877      0.167194      0.170735     Biso  1.000000 C
   C4         1.0     0.118875      0.225622      0.172928     Biso  1.000000 C
   C5         1.0     0.001683      0.332591      0.165615     Biso  1.000000 C
   C6         1.0     0.113113      0.389957      0.165709     Biso  1.000000 C
   C7         1.0     0.999019      0.498975      0.162663     Biso  1.000000 C
   C8         1.0     0.109458      0.555932      0.160006     Biso  1.000000 C
   C9         1.0     0.999555      0.665454      0.164224     Biso  1.000000 C
   C10        1.0     0.110384      0.722515      0.160642     Biso  1.000000 C
   C11        1.0    -0.000005      0.832139      0.168731     Biso  1.000000 C
   C12        1.0     0.111238      0.888940      0.165825     Biso  1.000000 C
   C13        1.0     0.168117      0.000346      0.167457     Biso  1.000000 C
   C14        1.0     0.279801      0.056298      0.165728     Biso  1.000000 C
   C15        1.0     0.175175      0.169736      0.172777     Biso  1.000000 C
   C16        1.0     0.173765      0.338592      0.171257     Biso  1.000000 C
   C17        1.0     0.164678      0.500951      0.161451     Biso  1.000000 C
   C18        1.0     0.274407      0.558925      0.160416     Biso  1.000000 C
   C19        1.0     0.165175      0.667220      0.158170     Biso  1.000000 C
   C20        1.0     0.275945      0.724067      0.156395     Biso  1.000000 C
   C21        1.0     0.166540      0.833632      0.161553     Biso  1.000000 C
   C22        1.0     0.277602      0.889762      0.159580     Biso  1.000000 C
   C23        1.0     0.334663      0.000755      0.161974     Biso  1.000000 C
   C24        1.0     0.445456      0.056399      0.161723     Biso  1.000000 C
   C25        1.0     0.335750      0.167100      0.169190     Biso  1.000000 C
   C26        1.0     0.448623      0.224630      0.169447     Biso  1.000000 C
   C27        1.0     0.328755      0.504660      0.166797     Biso  1.000000 C
   C28        1.0     0.438876      0.560913      0.168009     Biso  1.000000 C
   C29        1.0     0.330535      0.669347      0.157108     Biso  1.000000 C
   C30        1.0     0.441168      0.725550      0.158568     Biso  1.000000 C
   C31        1.0     0.332879      0.834942      0.157005     Biso  1.000000 C
   C32        1.0     0.444251      0.890769      0.157653     Biso  1.000000 C
   C33        1.0     0.501148      0.001275      0.159906     Biso  1.000000 C
   C34        1.0     0.612313      0.054966      0.161974     Biso  1.000000 C
   C35        1.0     0.501506      0.167487      0.165184     Biso  1.000000 C
   C36        1.0     0.612651      0.222618      0.165682     Biso  1.000000 C
   C37        1.0     0.610159      0.390947      0.172509     Biso  1.000000 C
   C38        1.0     0.495060      0.671090      0.163298     Biso  1.000000 C
   C39        1.0     0.499195      0.835474      0.158686     Biso  1.000000 C
   C40        1.0     0.610082      0.886755      0.162361     Biso  1.000000 C
   C41        1.0     0.667376      0.998323      0.163214     Biso  1.000000 C
   C42        1.0     0.778811      0.052739      0.166321     Biso  1.000000 C
   C43        1.0     0.668197      0.166435      0.164025     Biso  1.000000 C
   C44        1.0     0.779371      0.220690      0.165207     Biso  1.000000 C
   C45        1.0     0.666642      0.333870      0.168329     Biso  1.000000 C
   C46        1.0     0.777781      0.387478      0.167155     Biso  1.000000 C
   C47        1.0     0.776121      0.551592      0.171699     Biso  1.000000 C
   C48        1.0     0.661406      0.825876      0.166338     Biso  1.000000 C
   C49        1.0     0.774418      0.881013      0.169578     Biso  1.000000 C
   C50        1.0     0.832800      0.994996      0.168962     Biso  1.000000 C
   C51        1.0     0.945731      0.054223      0.170868     Biso  1.000000 C
   C52        1.0     0.835403      0.164531      0.166292     Biso  1.000000 C
   C53        1.0     0.947262      0.221169      0.167794     Biso  1.000000 C
   C54        1.0     0.833817      0.331854      0.165393     Biso  1.000000 C
   C55        1.0     0.945231      0.387762      0.164296     Biso  1.000000 C
   C56        1.0     0.832914      0.498564      0.168160     Biso  1.000000 C
   C57        1.0     0.943982      0.554675      0.164682     Biso  1.000000 C
   C58        1.0     0.833474      0.664351      0.171558     Biso  1.000000 C
   C59        1.0     0.944052      0.720387      0.168173     Biso  1.000000 C
   C60        1.0     0.830330      0.824846      0.171852     Biso  1.000000 C
   C61        1.0     0.943365      0.886022      0.171052     Biso  1.000000 C
   N1         1.0     0.283495      0.221729      0.173094     Biso  1.000000 N
   N2         1.0     0.281211      0.398378      0.173624     Biso  1.000000 N
   N3         1.0     0.501247      0.333439      0.174334     Biso  1.000000 N
   N4         1.0     0.492587      0.510326      0.175836     Biso  1.000000 N
   N5         1.0     0.601970      0.717827      0.167181     Biso  1.000000 N
   N6         1.0     0.667004      0.499761      0.174139     Biso  1.000000 N
   N7         1.0     0.777825      0.715909      0.173456     Biso  1.000000 N
   Co1        1.0     0.632532      0.608159      0.174257     Biso  1.000000 Co
   Fe1        1.0     0.393377      0.368873      0.199920     Biso  1.000000 Fe
   O1         1.0     0.389166      0.365590      0.309278     Biso  1.000000 O
