#======================================================================

# CRYSTAL DATA

#----------------------------------------------------------------------

data_VESTA_phase_1


_chemical_name_common                  'CONTCAR\(13)                          '
_cell_length_a                         14.76000
_cell_length_b                         14.76000
_cell_length_c                         15.00000
_cell_angle_alpha                      90
_cell_angle_beta                       90
_cell_angle_gamma                      120
_space_group_name_H-M_alt              'P 1'
_space_group_IT_number                 1

loop_
_space_group_symop_operation_xyz
   'x, y, z'

loop_
   _atom_site_label
   _atom_site_occupancy
   _atom_site_fract_x
   _atom_site_fract_y
   _atom_site_fract_z
   _atom_site_adp_type
   _atom_site_B_iso_or_equiv
   _atom_site_type_symbol
   C1         1.0     0.000196      0.998125      0.169322     Biso  1.000000 C
   C2         1.0     0.112998      0.055691      0.168030     Biso  1.000000 C
   C3         1.0     0.004156      0.166529      0.169701     Biso  1.000000 C
   C4         1.0     0.118176      0.225010      0.170863     Biso  1.000000 C
   C5         1.0     0.001104      0.332059      0.166511     Biso  1.000000 C
   C6         1.0     0.112531      0.389350      0.165995     Biso  1.000000 C
   C7         1.0     0.998421      0.498410      0.164887     Biso  1.000000 C
   C8         1.0     0.108849      0.555438      0.162736     Biso  1.000000 C
   C9         1.0     0.998959      0.664924      0.165792     Biso  1.000000 C
   C10        1.0     0.109830      0.722046      0.163074     Biso  1.000000 C
   C11        1.0    -0.000713      0.831496      0.167381     Biso  1.000000 C
   C12        1.0     0.110454      0.888245      0.164781     Biso  1.000000 C
   C13        1.0     0.167370     -0.000338      0.165008     Biso  1.000000 C
   C14        1.0     0.279062      0.055653      0.162970     Biso  1.000000 C
   C15        1.0     0.174337      0.168836      0.170297     Biso  1.000000 C
   C16        1.0     0.173118      0.337841      0.169308     Biso  1.000000 C
   C17        1.0     0.164079      0.500457      0.163074     Biso  1.000000 C
   C18        1.0     0.273731      0.558545      0.162236     Biso  1.000000 C
   C19        1.0     0.164625      0.666713      0.161459     Biso  1.000000 C
   C20        1.0     0.275324      0.723639      0.160079     Biso  1.000000 C
   C21        1.0     0.165895      0.833021      0.162631     Biso  1.000000 C
   C22        1.0     0.276995      0.889249      0.160723     Biso  1.000000 C
   C23        1.0     0.334064      0.000279      0.160962     Biso  1.000000 C
   C24        1.0     0.444878      0.055977      0.161275     Biso  1.000000 C
   C25        1.0     0.334880      0.166540      0.165664     Biso  1.000000 C
   C26        1.0     0.447953      0.224227      0.165343     Biso  1.000000 C
   C27        1.0     0.328168      0.504093      0.166144     Biso  1.000000 C
   C28        1.0     0.438130      0.560463      0.169021     Biso  1.000000 C
   C29        1.0     0.329895      0.668819      0.160559     Biso  1.000000 C
   C30        1.0     0.440591      0.725015      0.162084     Biso  1.000000 C
   C31        1.0     0.332193      0.834395      0.159962     Biso  1.000000 C
   C32        1.0     0.443610      0.890194      0.160573     Biso  1.000000 C
   C33        1.0     0.500452      0.000704      0.161386     Biso  1.000000 C
   C34        1.0     0.611625      0.054330      0.163377     Biso  1.000000 C
   C35        1.0     0.500907      0.167067      0.163234     Biso  1.000000 C
   C36        1.0     0.612095      0.222176      0.164717     Biso  1.000000 C
   C37        1.0     0.609683      0.390459      0.169404     Biso  1.000000 C
   C38        1.0     0.494401      0.670513      0.166272     Biso  1.000000 C
   C39        1.0     0.498536      0.834929      0.162094     Biso  1.000000 C
   C40        1.0     0.609452      0.886127      0.165041     Biso  1.000000 C
   C41        1.0     0.666685      0.997694      0.165168     Biso  1.000000 C
   C42        1.0     0.778176      0.052208      0.167524     Biso  1.000000 C
   C43        1.0     0.667555      0.165852      0.164510     Biso  1.000000 C
   C44        1.0     0.778715      0.220109      0.166084     Biso  1.000000 C
   C45        1.0     0.666170      0.333340      0.167116     Biso  1.000000 C
   C46        1.0     0.777319      0.386950      0.167498     Biso  1.000000 C
   C47        1.0     0.775658      0.551249      0.170641     Biso  1.000000 C
   C48        1.0     0.660845      0.825292      0.168544     Biso  1.000000 C
   C49        1.0     0.773735      0.880405      0.170148     Biso  1.000000 C
   C50        1.0     0.832149      0.994493      0.169410     Biso  1.000000 C
   C51        1.0     0.944942      0.053596      0.169943     Biso  1.000000 C
   C52        1.0     0.834748      0.163976      0.167140     Biso  1.000000 C
   C53        1.0     0.946643      0.220639      0.167961     Biso  1.000000 C
   C54        1.0     0.833239      0.331280      0.166580     Biso  1.000000 C
   C55        1.0     0.944698      0.387266      0.166010     Biso  1.000000 C
   C56        1.0     0.832356      0.498043      0.168509     Biso  1.000000 C
   C57        1.0     0.943409      0.554166      0.166409     Biso  1.000000 C
   C58        1.0     0.832737      0.663625      0.170485     Biso  1.000000 C
   C59        1.0     0.943302      0.719775      0.167901     Biso  1.000000 C
   C60        1.0     0.829512      0.824138      0.170845     Biso  1.000000 C
   C61        1.0     0.942548      0.885315      0.169246     Biso  1.000000 C
   N1         1.0     0.282393      0.220747      0.170895     Biso  1.000000 N
   N2         1.0     0.280966      0.397695      0.170036     Biso  1.000000 N
   N3         1.0     0.500861      0.333127      0.168812     Biso  1.000000 N
   N4         1.0     0.491344      0.508991      0.176037     Biso  1.000000 N
   N5         1.0     0.601479      0.717176      0.170055     Biso  1.000000 N
   N6         1.0     0.666357      0.499339      0.172164     Biso  1.000000 N
   N7         1.0     0.776648      0.715073      0.172177     Biso  1.000000 N
   Co1        1.0     0.632257      0.607957      0.174844     Biso  1.000000 Co
   Fe1        1.0     0.393393      0.368197      0.197233     Biso  1.000000 Fe
   O1         1.0     0.389238      0.359277      0.318735     Biso  1.000000 O
   H1         1.0     0.443389      0.423469      0.346413     Biso  1.000000 H
