#======================================================================

# CRYSTAL DATA

#----------------------------------------------------------------------

data_VESTA_phase_1


_chemical_name_common                  'contcar\(7)                           '
_cell_length_a                         14.76000
_cell_length_b                         14.76000
_cell_length_c                         15.00000
_cell_angle_alpha                      90
_cell_angle_beta                       90
_cell_angle_gamma                      120
_space_group_name_H-M_alt              'P 1'
_space_group_IT_number                 1

loop_
_space_group_symop_operation_xyz
   'x, y, z'

loop_
   _atom_site_label
   _atom_site_occupancy
   _atom_site_fract_x
   _atom_site_fract_y
   _atom_site_fract_z
   _atom_site_adp_type
   _atom_site_B_iso_or_equiv
   _atom_site_type_symbol
   C1         1.0     0.000202      0.998381      0.170839     Biso  1.000000 C
   C2         1.0     0.112963      0.055946      0.171169     Biso  1.000000 C
   C3         1.0     0.004280      0.166949      0.168414     Biso  1.000000 C
   C4         1.0     0.118358      0.225549      0.169282     Biso  1.000000 C
   C5         1.0     0.001094      0.332392      0.164137     Biso  1.000000 C
   C6         1.0     0.112496      0.389670      0.161090     Biso  1.000000 C
   C7         1.0     0.998359      0.498641      0.164299     Biso  1.000000 C
   C8         1.0     0.108746      0.555621      0.159677     Biso  1.000000 C
   C9         1.0     0.998904      0.665086      0.168732     Biso  1.000000 C
   C10        1.0     0.109785      0.722125      0.164866     Biso  1.000000 C
   C11        1.0    -0.000743      0.831647      0.171360     Biso  1.000000 C
   C12        1.0     0.110451      0.888340      0.169594     Biso  1.000000 C
   C13        1.0     0.167266     -0.000238      0.170204     Biso  1.000000 C
   C14        1.0     0.278912      0.055668      0.168840     Biso  1.000000 C
   C15        1.0     0.174371      0.169199      0.171718     Biso  1.000000 C
   C16        1.0     0.173187      0.338242      0.164351     Biso  1.000000 C
   C17        1.0     0.163975      0.500709      0.156780     Biso  1.000000 C
   C18        1.0     0.273636      0.558826      0.151972     Biso  1.000000 C
   C19        1.0     0.164561      0.666904      0.159576     Biso  1.000000 C
   C20        1.0     0.275230      0.723849      0.155466     Biso  1.000000 C
   C21        1.0     0.165905      0.833097      0.165878     Biso  1.000000 C
   C22        1.0     0.276937      0.889293      0.163178     Biso  1.000000 C
   C23        1.0     0.333850      0.000272      0.165739     Biso  1.000000 C
   C24        1.0     0.444672      0.056043      0.165344     Biso  1.000000 C
   C25        1.0     0.334731      0.166591      0.170715     Biso  1.000000 C
   C26        1.0     0.447665      0.224143      0.170351     Biso  1.000000 C
   C27        1.0     0.328243      0.504395      0.154583     Biso  1.000000 C
   C28        1.0     0.438348      0.560887      0.155853     Biso  1.000000 C
   C29        1.0     0.329815      0.669151      0.150969     Biso  1.000000 C
   C30        1.0     0.440652      0.725517      0.151671     Biso  1.000000 C
   C31        1.0     0.332126      0.834591      0.158489     Biso  1.000000 C
   C32        1.0     0.443593      0.890551      0.158452     Biso  1.000000 C
   C33        1.0     0.500360      0.000921      0.162586     Biso  1.000000 C
   C34        1.0     0.611619      0.054666      0.163946     Biso  1.000000 C
   C35        1.0     0.500663      0.167116      0.168040     Biso  1.000000 C
   C36        1.0     0.611919      0.222382      0.168231     Biso  1.000000 C
   C37        1.0     0.609450      0.390790      0.172097     Biso  1.000000 C
   C38        1.0     0.494534      0.671027      0.154351     Biso  1.000000 C
   C39        1.0     0.498597      0.835421      0.156074     Biso  1.000000 C
   C40        1.0     0.609531      0.886574      0.160215     Biso  1.000000 C
   C41        1.0     0.666760      0.998113      0.163275     Biso  1.000000 C
   C42        1.0     0.778284      0.052538      0.165894     Biso  1.000000 C
   C43        1.0     0.667486      0.166165      0.166505     Biso  1.000000 C
   C44        1.0     0.778712      0.220404      0.166808     Biso  1.000000 C
   C45        1.0     0.665858      0.333550      0.170171     Biso  1.000000 C
   C46        1.0     0.777075      0.387135      0.169569     Biso  1.000000 C
   C47        1.0     0.775536      0.551497      0.172930     Biso  1.000000 C
   C48        1.0     0.660889      0.825631      0.162973     Biso  1.000000 C
   C49        1.0     0.773783      0.880711      0.167558     Biso  1.000000 C
   C50        1.0     0.832281      0.994786      0.167581     Biso  1.000000 C
   C51        1.0     0.945049      0.053949      0.169360     Biso  1.000000 C
   C52        1.0     0.834785      0.164249      0.166458     Biso  1.000000 C
   C53        1.0     0.946697      0.220959      0.166515     Biso  1.000000 C
   C54        1.0     0.833117      0.331580      0.167464     Biso  1.000000 C
   C55        1.0     0.944600      0.387532      0.165139     Biso  1.000000 C
   C56        1.0     0.832176      0.498233      0.170726     Biso  1.000000 C
   C57        1.0     0.943311      0.554340      0.168150     Biso  1.000000 C
   C58        1.0     0.832627      0.663809      0.172746     Biso  1.000000 C
   C59        1.0     0.943261      0.719964      0.171540     Biso  1.000000 C
   C60        1.0     0.829477      0.824414      0.170686     Biso  1.000000 C
   C61        1.0     0.942558      0.885565      0.171442     Biso  1.000000 C
   C62        1.0     0.490968      0.422696      0.362796     Biso  1.000000 C
   N1         1.0     0.282344      0.221054      0.173290     Biso  1.000000 N
   N2         1.0     0.281104      0.398136      0.162460     Biso  1.000000 N
   N3         1.0     0.500460      0.333320      0.172081     Biso  1.000000 N
   N4         1.0     0.491831      0.509932      0.164997     Biso  1.000000 N
   N5         1.0     0.601428      0.717607      0.161861     Biso  1.000000 N
   N6         1.0     0.666058      0.499609      0.173691     Biso  1.000000 N
   N7         1.0     0.776601      0.715359      0.172188     Biso  1.000000 N
   Co1        1.0     0.631879      0.608199      0.170658     Biso  1.000000 Co
   Fe1        1.0     0.393678      0.370520      0.193315     Biso  1.000000 Fe
   O1         1.0     0.396482      0.375323      0.314271     Biso  1.000000 O
   H1         1.0     0.472908      0.426284      0.433721     Biso  1.000000 H
   H2         1.0     0.531398      0.376755      0.357489     Biso  1.000000 H
   H3         1.0     0.545489      0.502769      0.338175     Biso  1.000000 H
