#======================================================================

# CRYSTAL DATA

#----------------------------------------------------------------------

data_VESTA_phase_1


_chemical_name_common                  'POSCAR\(15)                           '
_cell_length_a                         14.76000
_cell_length_b                         14.76000
_cell_length_c                         15.00000
_cell_angle_alpha                      90
_cell_angle_beta                       90
_cell_angle_gamma                      120
_space_group_name_H-M_alt              'P 1'
_space_group_IT_number                 1

loop_
_space_group_symop_operation_xyz
   'x, y, z'

loop_
   _atom_site_label
   _atom_site_occupancy
   _atom_site_fract_x
   _atom_site_fract_y
   _atom_site_fract_z
   _atom_site_adp_type
   _atom_site_B_iso_or_equiv
   _atom_site_type_symbol
   C1         1.0     0.000573      0.999820      0.167998     Biso  1.000000 C
   C2         1.0     0.113226      0.057113      0.167159     Biso  1.000000 C
   C3         1.0     0.004485      0.168437      0.168415     Biso  1.000000 C
   C4         1.0     0.118638      0.226840      0.171003     Biso  1.000000 C
   C5         1.0     0.001714      0.334018      0.162247     Biso  1.000000 C
   C6         1.0     0.113127      0.391106      0.163996     Biso  1.000000 C
   C7         1.0     0.999075      0.500207      0.156114     Biso  1.000000 C
   C8         1.0     0.109744      0.556967      0.155178     Biso  1.000000 C
   C9         1.0     0.999214      0.666585      0.156189     Biso  1.000000 C
   C10        1.0     0.110218      0.723559      0.154195     Biso  1.000000 C
   C11        1.0     0.999490      0.833098      0.162565     Biso  1.000000 C
   C12        1.0     0.110649      0.889713      0.160206     Biso  1.000000 C
   C13        1.0     0.167410      0.000888      0.162922     Biso  1.000000 C
   C14        1.0     0.279153      0.056845      0.160549     Biso  1.000000 C
   C15        1.0     0.174145      0.169987      0.171353     Biso  1.000000 C
   C16        1.0     0.173529      0.339526      0.170101     Biso  1.000000 C
   C17        1.0     0.165118      0.502214      0.159793     Biso  1.000000 C
   C18        1.0     0.275066      0.560413      0.164365     Biso  1.000000 C
   C19        1.0     0.165313      0.668384      0.153220     Biso  1.000000 C
   C20        1.0     0.275945      0.725290      0.154280     Biso  1.000000 C
   C21        1.0     0.166210      0.834480      0.155682     Biso  1.000000 C
   C22        1.0     0.277259      0.890693      0.154383     Biso  1.000000 C
   C23        1.0     0.334220      0.001605      0.156530     Biso  1.000000 C
   C24        1.0     0.445048      0.057580      0.156890     Biso  1.000000 C
   C25        1.0     0.334960      0.167259      0.164761     Biso  1.000000 C
   C26        1.0     0.447836      0.225680      0.161447     Biso  1.000000 C
   C27        1.0     0.330070      0.506847      0.176802     Biso  1.000000 C
   C28        1.0     0.437848      0.564524      0.192051     Biso  1.000000 C
   C29        1.0     0.330827      0.670556      0.160942     Biso  1.000000 C
   C30        1.0     0.440976      0.727034      0.166389     Biso  1.000000 C
   C31        1.0     0.332658      0.835939      0.153759     Biso  1.000000 C
   C32        1.0     0.444112      0.891994      0.156186     Biso  1.000000 C
   C33        1.0     0.500836      0.002491      0.156968     Biso  1.000000 C
   C34        1.0     0.612004      0.056419      0.159668     Biso  1.000000 C
   C35        1.0     0.501020      0.168734      0.158864     Biso  1.000000 C
   C36        1.0     0.612250      0.224185      0.158851     Biso  1.000000 C
   C37        1.0     0.609285      0.392755      0.162088     Biso  1.000000 C
   C38        1.0     0.494734      0.672802      0.180144     Biso  1.000000 C
   C39        1.0     0.498957      0.836801      0.161676     Biso  1.000000 C
   C40        1.0     0.609843      0.888496      0.166194     Biso  1.000000 C
   C41        1.0     0.667063      0.999848      0.163490     Biso  1.000000 C
   C42        1.0     0.778634      0.054383      0.165672     Biso  1.000000 C
   C43        1.0     0.667934      0.168000      0.159377     Biso  1.000000 C
   C44        1.0     0.779133      0.222280      0.160478     Biso  1.000000 C
   C45        1.0     0.666021      0.335490      0.159531     Biso  1.000000 C
   C46        1.0     0.777328      0.388951      0.158678     Biso  1.000000 C
   C47        1.0     0.775545      0.553166      0.161219     Biso  1.000000 C
   C48        1.0     0.661425      0.828068      0.172505     Biso  1.000000 C
   C49        1.0     0.774287      0.882677      0.170675     Biso  1.000000 C
   C50        1.0     0.832694      0.996714      0.168668     Biso  1.000000 C
   C51        1.0     0.945474      0.055562      0.168888     Biso  1.000000 C
   C52        1.0     0.835153      0.166097      0.163423     Biso  1.000000 C
   C53        1.0     0.947040      0.222549      0.164939     Biso  1.000000 C
   C54        1.0     0.833581      0.333376      0.159044     Biso  1.000000 C
   C55        1.0     0.945141      0.389190      0.158855     Biso  1.000000 C
   C56        1.0     0.832534      0.499966      0.158280     Biso  1.000000 C
   C57        1.0     0.943712      0.555831      0.156144     Biso  1.000000 C
   C58        1.0     0.833013      0.665591      0.162910     Biso  1.000000 C
   C59        1.0     0.943585      0.721444      0.160109     Biso  1.000000 C
   C60        1.0     0.830010      0.826379      0.168994     Biso  1.000000 C
   C61        1.0     0.943024      0.887122      0.166772     Biso  1.000000 C
   C62        1.0     0.488913      0.483013      0.310187     Biso  1.000000 C
   N1         1.0     0.282523      0.221650      0.174141     Biso  1.000000 N
   N2         1.0     0.281758      0.398988      0.174061     Biso  1.000000 N
   N3         1.0     0.499723      0.334911      0.162308     Biso  1.000000 N
   N4         1.0     0.493824      0.513594      0.212786     Biso  1.000000 N
   N5         1.0     0.602552      0.720529      0.179583     Biso  1.000000 N
   N6         1.0     0.666335      0.501653      0.164287     Biso  1.000000 N
   N7         1.0     0.777323      0.717354      0.168157     Biso  1.000000 N
   Co1        1.0     0.635028      0.614390      0.177625     Biso  1.000000 Co
   Fe1        1.0     0.387317      0.363996      0.192834     Biso  1.000000 Fe
   O1         1.0     0.408400      0.378203      0.312866     Biso  1.000000 O
   H1         1.0     0.564865      0.490432      0.328252     Biso  1.000000 H
   H2         1.0     0.472725      0.534195      0.353177     Biso  1.000000 H
