#======================================================================

# CRYSTAL DATA

#----------------------------------------------------------------------

data_VESTA_phase_1


_chemical_name_common                  'CONTCAR                               '
_cell_length_a                         14.76000
_cell_length_b                         14.76000
_cell_length_c                         15.00000
_cell_angle_alpha                      90
_cell_angle_beta                       90
_cell_angle_gamma                      120
_space_group_name_H-M_alt              'P 1'
_space_group_IT_number                 1

loop_
_space_group_symop_operation_xyz
   'x, y, z'

loop_
   _atom_site_label
   _atom_site_occupancy
   _atom_site_fract_x
   _atom_site_fract_y
   _atom_site_fract_z
   _atom_site_adp_type
   _atom_site_B_iso_or_equiv
   _atom_site_type_symbol
   C1         1.0     0.999523      0.995369      0.170077     Biso  1.000000 C
   C2         1.0     0.111877      0.052678      0.168066     Biso  1.000000 C
   C3         1.0     0.002734      0.163583      0.173185     Biso  1.000000 C
   C4         1.0     0.116551      0.221980      0.176732     Biso  1.000000 C
   C5         1.0     0.000568      0.329554      0.165061     Biso  1.000000 C
   C6         1.0     0.111611      0.386972      0.167204     Biso  1.000000 C
   C7         1.0     0.999063      0.496156      0.155724     Biso  1.000000 C
   C8         1.0     0.109532      0.553198      0.154266     Biso  1.000000 C
   C9         1.0     0.999563      0.662957      0.154001     Biso  1.000000 C
   C10        1.0     0.110416      0.720154      0.149928     Biso  1.000000 C
   C11        1.0     0.999633      0.829598      0.161102     Biso  1.000000 C
   C12        1.0     0.110741      0.886492      0.156337     Biso  1.000000 C
   C13        1.0     0.167253      0.997659      0.160643     Biso  1.000000 C
   C14        1.0     0.279232      0.054001      0.158282     Biso  1.000000 C
   C15        1.0     0.172000      0.165187      0.174470     Biso  1.000000 C
   C16        1.0     0.170940      0.335043      0.176925     Biso  1.000000 C
   C17        1.0     0.164506      0.498207      0.161196     Biso  1.000000 C
   C18        1.0     0.274552      0.556248      0.164652     Biso  1.000000 C
   C19        1.0     0.165176      0.664696      0.149970     Biso  1.000000 C
   C20        1.0     0.275799      0.721390      0.150687     Biso  1.000000 C
   C21        1.0     0.166195      0.831196      0.150133     Biso  1.000000 C
   C22        1.0     0.277152      0.887291      0.148512     Biso  1.000000 C
   C23        1.0     0.334051      0.998564      0.151746     Biso  1.000000 C
   C24        1.0     0.444926      0.054224      0.153417     Biso  1.000000 C
   C25        1.0     0.334619      0.164806      0.166153     Biso  1.000000 C
   C26        1.0     0.448101      0.222514      0.164820     Biso  1.000000 C
   C27        1.0     0.328376      0.501805      0.178098     Biso  1.000000 C
   C28        1.0     0.438960      0.559093      0.183702     Biso  1.000000 C
   C29        1.0     0.330220      0.666444      0.158512     Biso  1.000000 C
   C30        1.0     0.440537      0.723007      0.163918     Biso  1.000000 C
   C31        1.0     0.332371      0.832259      0.148967     Biso  1.000000 C
   C32        1.0     0.443819      0.888289      0.152674     Biso  1.000000 C
   C33        1.0     0.500535      0.998777      0.153831     Biso  1.000000 C
   C34        1.0     0.611476      0.052320      0.159203     Biso  1.000000 C
   C35        1.0     0.500792      0.165118      0.158730     Biso  1.000000 C
   C36        1.0     0.612309      0.220411      0.159829     Biso  1.000000 C
   C37        1.0     0.612469      0.389578      0.167408     Biso  1.000000 C
   C38        1.0     0.493926      0.668805      0.175342     Biso  1.000000 C
   C39        1.0     0.498477      0.832962      0.159559     Biso  1.000000 C
   C40        1.0     0.609216      0.884234      0.165206     Biso  1.000000 C
   C41        1.0     0.666272      0.995582      0.164033     Biso  1.000000 C
   C42        1.0     0.777712      0.049893      0.168221     Biso  1.000000 C
   C43        1.0     0.667463      0.163938      0.160271     Biso  1.000000 C
   C44        1.0     0.778617      0.218022      0.162688     Biso  1.000000 C
   C45        1.0     0.667587      0.331866      0.161649     Biso  1.000000 C
   C46        1.0     0.778330      0.385160      0.160459     Biso  1.000000 C
   C47        1.0     0.777113      0.549754      0.165304     Biso  1.000000 C
   C48        1.0     0.660747      0.823528      0.172228     Biso  1.000000 C
   C49        1.0     0.773629      0.878163      0.172887     Biso  1.000000 C
   C50        1.0     0.831535      0.992074      0.171605     Biso  1.000000 C
   C51        1.0     0.944132      0.050901      0.172609     Biso  1.000000 C
   C52        1.0     0.834147      0.161526      0.166648     Biso  1.000000 C
   C53        1.0     0.945860      0.218000      0.169076     Biso  1.000000 C
   C54        1.0     0.833591      0.329161      0.160883     Biso  1.000000 C
   C55        1.0     0.944880      0.385058      0.160263     Biso  1.000000 C
   C56        1.0     0.833419      0.496347      0.160055     Biso  1.000000 C
   C57        1.0     0.944267      0.552240      0.155553     Biso  1.000000 C
   C58        1.0     0.833891      0.661895      0.165808     Biso  1.000000 C
   C59        1.0     0.944128      0.717867      0.159441     Biso  1.000000 C
   C60        1.0     0.829800      0.822174      0.171953     Biso  1.000000 C
   C61        1.0     0.942586      0.882939      0.168104     Biso  1.000000 C
   N1         1.0     0.279691      0.217026      0.177358     Biso  1.000000 N
   N2         1.0     0.277602      0.394223      0.186097     Biso  1.000000 N
   N3         1.0     0.504208      0.332149      0.172089     Biso  1.000000 N
   N4         1.0     0.497439      0.512369      0.194231     Biso  1.000000 N
   N5         1.0     0.601642      0.715974      0.177481     Biso  1.000000 N
   N6         1.0     0.668061      0.498158      0.171205     Biso  1.000000 N
   N7         1.0     0.778131      0.713400      0.172697     Biso  1.000000 N
   Co1        1.0     0.635305      0.609690      0.181201     Biso  1.000000 Co
   Sc1        1.0     0.396711      0.365345      0.232995     Biso  1.000000 Sc
