#======================================================================

# CRYSTAL DATA

#----------------------------------------------------------------------

data_VESTA_phase_1


_chemical_name_common                  'CONTCAR                               '
_cell_length_a                         14.76000
_cell_length_b                         14.76000
_cell_length_c                         15.00000
_cell_angle_alpha                      90
_cell_angle_beta                       90
_cell_angle_gamma                      120
_space_group_name_H-M_alt              'P 1'
_space_group_IT_number                 1

loop_
_space_group_symop_operation_xyz
   'x, y, z'

loop_
   _atom_site_label
   _atom_site_occupancy
   _atom_site_fract_x
   _atom_site_fract_y
   _atom_site_fract_z
   _atom_site_adp_type
   _atom_site_B_iso_or_equiv
   _atom_site_type_symbol
   C1         1.0    -0.000135      0.995430      0.170510     Biso  1.000000 C
   C2         1.0     0.112439      0.052893      0.168637     Biso  1.000000 C
   C3         1.0     0.003496      0.163843      0.173493     Biso  1.000000 C
   C4         1.0     0.117387      0.222287      0.177099     Biso  1.000000 C
   C5         1.0     0.000991      0.329555      0.165549     Biso  1.000000 C
   C6         1.0     0.112347      0.386972      0.167576     Biso  1.000000 C
   C7         1.0     0.998821      0.495993      0.156121     Biso  1.000000 C
   C8         1.0     0.109399      0.552973      0.154149     Biso  1.000000 C
   C9         1.0     0.999153      0.662658      0.154240     Biso  1.000000 C
   C10        1.0     0.110115      0.719852      0.149887     Biso  1.000000 C
   C11        1.0     0.999372      0.829246      0.161317     Biso  1.000000 C
   C12        1.0     0.110556      0.886159      0.156582     Biso  1.000000 C
   C13        1.0     0.167228      0.997340      0.160886     Biso  1.000000 C
   C14        1.0     0.279092      0.053522      0.158172     Biso  1.000000 C
   C15        1.0     0.172985      0.165430      0.175234     Biso  1.000000 C
   C16        1.0     0.172001      0.335300      0.177418     Biso  1.000000 C
   C17        1.0     0.164587      0.498212      0.160865     Biso  1.000000 C
   C18        1.0     0.274576      0.556449      0.163686     Biso  1.000000 C
   C19        1.0     0.165028      0.664507      0.149624     Biso  1.000000 C
   C20        1.0     0.275706      0.721398      0.149872     Biso  1.000000 C
   C21        1.0     0.166043      0.830932      0.150249     Biso  1.000000 C
   C22        1.0     0.277086      0.887126      0.148562     Biso  1.000000 C
   C23        1.0     0.334073      0.998215      0.151834     Biso  1.000000 C
   C24        1.0     0.444838      0.053927      0.153450     Biso  1.000000 C
   C25        1.0     0.334736      0.163942      0.166098     Biso  1.000000 C
   C26        1.0     0.447852      0.221635      0.164747     Biso  1.000000 C
   C27        1.0     0.328770      0.502936      0.178252     Biso  1.000000 C
   C28        1.0     0.438593      0.560030      0.184840     Biso  1.000000 C
   C29        1.0     0.330382      0.666756      0.157147     Biso  1.000000 C
   C30        1.0     0.440612      0.723318      0.162536     Biso  1.000000 C
   C31        1.0     0.332407      0.832259      0.148516     Biso  1.000000 C
   C32        1.0     0.443827      0.888321      0.152240     Biso  1.000000 C
   C33        1.0     0.500587      0.998761      0.153843     Biso  1.000000 C
   C34        1.0     0.611604      0.052349      0.159131     Biso  1.000000 C
   C35        1.0     0.500798      0.164937      0.158477     Biso  1.000000 C
   C36        1.0     0.612324      0.220301      0.160124     Biso  1.000000 C
   C37        1.0     0.611376      0.389196      0.168326     Biso  1.000000 C
   C38        1.0     0.494155      0.669141      0.174904     Biso  1.000000 C
   C39        1.0     0.498664      0.833143      0.158762     Biso  1.000000 C
   C40        1.0     0.609352      0.884392      0.164868     Biso  1.000000 C
   C41        1.0     0.666521      0.995701      0.163801     Biso  1.000000 C
   C42        1.0     0.777994      0.049957      0.168309     Biso  1.000000 C
   C43        1.0     0.667589      0.163929      0.160498     Biso  1.000000 C
   C44        1.0     0.778784      0.217995      0.163035     Biso  1.000000 C
   C45        1.0     0.666966      0.331558      0.162448     Biso  1.000000 C
   C46        1.0     0.777852      0.384937      0.161006     Biso  1.000000 C
   C47        1.0     0.776105      0.549179      0.165596     Biso  1.000000 C
   C48        1.0     0.660775      0.823645      0.172513     Biso  1.000000 C
   C49        1.0     0.773809      0.878285      0.173212     Biso  1.000000 C
   C50        1.0     0.831917      0.992154      0.171889     Biso  1.000000 C
   C51        1.0     0.944659      0.051038      0.172926     Biso  1.000000 C
   C52        1.0     0.834480      0.161562      0.166959     Biso  1.000000 C
   C53        1.0     0.946352      0.218122      0.169469     Biso  1.000000 C
   C54        1.0     0.833532      0.329081      0.161210     Biso  1.000000 C
   C55        1.0     0.944940      0.384894      0.160640     Biso  1.000000 C
   C56        1.0     0.832832      0.496043      0.160561     Biso  1.000000 C
   C57        1.0     0.943796      0.551915      0.156031     Biso  1.000000 C
   C58        1.0     0.833120      0.661604      0.165883     Biso  1.000000 C
   C59        1.0     0.943569      0.717486      0.159656     Biso  1.000000 C
   C60        1.0     0.829738      0.822076      0.172115     Biso  1.000000 C
   C61        1.0     0.942659      0.882904      0.168285     Biso  1.000000 C
   N1         1.0     0.280885      0.217008      0.178096     Biso  1.000000 N
   N2         1.0     0.279392      0.395249      0.187147     Biso  1.000000 N
   N3         1.0     0.502496      0.331263      0.173530     Biso  1.000000 N
   N4         1.0     0.494328      0.510788      0.199446     Biso  1.000000 N
   N5         1.0     0.601642      0.716273      0.178185     Biso  1.000000 N
   N6         1.0     0.667162      0.497409      0.171431     Biso  1.000000 N
   N7         1.0     0.777630      0.713219      0.172656     Biso  1.000000 N
   Co1        1.0     0.633526      0.608249      0.182165     Biso  1.000000 Co
   V1         1.0     0.395350      0.365559      0.216837     Biso  1.000000 V
