#======================================================================

# CRYSTAL DATA

#----------------------------------------------------------------------

data_VESTA_phase_1


_chemical_name_common                  'CONTCAR                               '
_cell_length_a                         14.76000
_cell_length_b                         14.76000
_cell_length_c                         15.00000
_cell_angle_alpha                      90
_cell_angle_beta                       90
_cell_angle_gamma                      120
_space_group_name_H-M_alt              'P 1'
_space_group_IT_number                 1

loop_
_space_group_symop_operation_xyz
   'x, y, z'

loop_
   _atom_site_label
   _atom_site_occupancy
   _atom_site_fract_x
   _atom_site_fract_y
   _atom_site_fract_z
   _atom_site_adp_type
   _atom_site_B_iso_or_equiv
   _atom_site_type_symbol
   C1         1.0     0.999334      0.995241      0.170218     Biso  1.000000 C
   C2         1.0     0.111856      0.052848      0.168274     Biso  1.000000 C
   C3         1.0     0.002870      0.163581      0.173225     Biso  1.000000 C
   C4         1.0     0.116704      0.222079      0.176615     Biso  1.000000 C
   C5         1.0     0.000933      0.329521      0.165526     Biso  1.000000 C
   C6         1.0     0.112364      0.386948      0.167568     Biso  1.000000 C
   C7         1.0     0.999013      0.496245      0.156041     Biso  1.000000 C
   C8         1.0     0.109493      0.553215      0.154219     Biso  1.000000 C
   C9         1.0     0.999386      0.662981      0.154060     Biso  1.000000 C
   C10        1.0     0.110283      0.720173      0.150074     Biso  1.000000 C
   C11        1.0     0.999394      0.829495      0.161191     Biso  1.000000 C
   C12        1.0     0.110732      0.886605      0.156777     Biso  1.000000 C
   C13        1.0     0.167223      0.997681      0.161288     Biso  1.000000 C
   C14        1.0     0.279064      0.054071      0.159552     Biso  1.000000 C
   C15        1.0     0.171734      0.165221      0.174035     Biso  1.000000 C
   C16        1.0     0.171926      0.335249      0.177226     Biso  1.000000 C
   C17        1.0     0.164572      0.498221      0.160778     Biso  1.000000 C
   C18        1.0     0.274348      0.556118      0.163142     Biso  1.000000 C
   C19        1.0     0.165128      0.664740      0.149887     Biso  1.000000 C
   C20        1.0     0.275855      0.721544      0.150181     Biso  1.000000 C
   C21        1.0     0.166194      0.831390      0.150665     Biso  1.000000 C
   C22        1.0     0.277192      0.887576      0.149439     Biso  1.000000 C
   C23        1.0     0.333980      0.998777      0.153420     Biso  1.000000 C
   C24        1.0     0.444995      0.054360      0.155219     Biso  1.000000 C
   C25        1.0     0.334670      0.165156      0.166350     Biso  1.000000 C
   C26        1.0     0.447849      0.222523      0.164494     Biso  1.000000 C
   C27        1.0     0.328464      0.502269      0.177291     Biso  1.000000 C
   C28        1.0     0.437981      0.559059      0.183656     Biso  1.000000 C
   C29        1.0     0.330332      0.666554      0.157025     Biso  1.000000 C
   C30        1.0     0.440552      0.722861      0.162538     Biso  1.000000 C
   C31        1.0     0.332437      0.832451      0.149224     Biso  1.000000 C
   C32        1.0     0.443763      0.888230      0.153090     Biso  1.000000 C
   C33        1.0     0.500484      0.998817      0.155030     Biso  1.000000 C
   C34        1.0     0.611475      0.052266      0.159836     Biso  1.000000 C
   C35        1.0     0.500920      0.165260      0.160010     Biso  1.000000 C
   C36        1.0     0.612329      0.220403      0.160368     Biso  1.000000 C
   C37        1.0     0.613034      0.390217      0.165918     Biso  1.000000 C
   C38        1.0     0.494114      0.668429      0.174724     Biso  1.000000 C
   C39        1.0     0.498375      0.832740      0.159286     Biso  1.000000 C
   C40        1.0     0.609194      0.883942      0.165455     Biso  1.000000 C
   C41        1.0     0.666304      0.995370      0.164333     Biso  1.000000 C
   C42        1.0     0.777683      0.049679      0.168372     Biso  1.000000 C
   C43        1.0     0.667441      0.163859      0.160717     Biso  1.000000 C
   C44        1.0     0.778776      0.217956      0.162868     Biso  1.000000 C
   C45        1.0     0.667579      0.331973      0.161566     Biso  1.000000 C
   C46        1.0     0.778300      0.385121      0.160429     Biso  1.000000 C
   C47        1.0     0.776869      0.549617      0.164781     Biso  1.000000 C
   C48        1.0     0.660447      0.823080      0.172902     Biso  1.000000 C
   C49        1.0     0.773351      0.877860      0.173279     Biso  1.000000 C
   C50        1.0     0.831342      0.991700      0.171759     Biso  1.000000 C
   C51        1.0     0.944173      0.050775      0.172630     Biso  1.000000 C
   C52        1.0     0.834205      0.161458      0.166833     Biso  1.000000 C
   C53        1.0     0.946029      0.218071      0.169353     Biso  1.000000 C
   C54        1.0     0.833773      0.329134      0.160992     Biso  1.000000 C
   C55        1.0     0.945061      0.384964      0.160570     Biso  1.000000 C
   C56        1.0     0.833165      0.496239      0.159879     Biso  1.000000 C
   C57        1.0     0.944167      0.552197      0.155745     Biso  1.000000 C
   C58        1.0     0.833478      0.661965      0.165637     Biso  1.000000 C
   C59        1.0     0.943796      0.717904      0.159375     Biso  1.000000 C
   C60        1.0     0.829299      0.821514      0.172205     Biso  1.000000 C
   C61        1.0     0.942153      0.882513      0.168196     Biso  1.000000 C
   N1         1.0     0.279900      0.217888      0.176277     Biso  1.000000 N
   N2         1.0     0.279546      0.394704      0.186289     Biso  1.000000 N
   N3         1.0     0.504019      0.332882      0.168460     Biso  1.000000 N
   N4         1.0     0.493097      0.509295      0.199022     Biso  1.000000 N
   N5         1.0     0.601452      0.715367      0.178771     Biso  1.000000 N
   N6         1.0     0.667979      0.498440      0.170334     Biso  1.000000 N
   N7         1.0     0.777035      0.712478      0.172969     Biso  1.000000 N
   Co1        1.0     0.634127      0.608176      0.183397     Biso  1.000000 Co
   Ti1        1.0     0.398527      0.363489      0.222508     Biso  1.000000 Ti
