#======================================================================

# CRYSTAL DATA

#----------------------------------------------------------------------

data_VESTA_phase_1


_chemical_name_common                  'CONTCAR\(42)                          '
_cell_length_a                         14.76000
_cell_length_b                         14.76000
_cell_length_c                         15.00000
_cell_angle_alpha                      90
_cell_angle_beta                       90
_cell_angle_gamma                      120
_space_group_name_H-M_alt              'P 1'
_space_group_IT_number                 1

loop_
_space_group_symop_operation_xyz
   'x, y, z'

loop_
   _atom_site_label
   _atom_site_occupancy
   _atom_site_fract_x
   _atom_site_fract_y
   _atom_site_fract_z
   _atom_site_adp_type
   _atom_site_B_iso_or_equiv
   _atom_site_type_symbol
   C1         1.0     0.999835      0.995319      0.170882     Biso  1.000000 C
   C2         1.0     0.112366      0.052709      0.168740     Biso  1.000000 C
   C3         1.0     0.003700      0.163969      0.173579     Biso  1.000000 C
   C4         1.0     0.117347      0.222411      0.176858     Biso  1.000000 C
   C5         1.0     0.000583      0.329661      0.165682     Biso  1.000000 C
   C6         1.0     0.111607      0.387355      0.168593     Biso  1.000000 C
   C7         1.0     0.998551      0.496117      0.155621     Biso  1.000000 C
   C8         1.0     0.109000      0.553273      0.154416     Biso  1.000000 C
   C9         1.0     0.999024      0.662673      0.153415     Biso  1.000000 C
   C10        1.0     0.109944      0.719890      0.149233     Biso  1.000000 C
   C11        1.0     0.999240      0.829107      0.161210     Biso  1.000000 C
   C12        1.0     0.110486      0.886072      0.156325     Biso  1.000000 C
   C13        1.0     0.167281      0.997288      0.160925     Biso  1.000000 C
   C14        1.0     0.279262      0.053248      0.158476     Biso  1.000000 C
   C15        1.0     0.172887      0.165339      0.174256     Biso  1.000000 C
   C16        1.0     0.171224      0.335830      0.178041     Biso  1.000000 C
   C17        1.0     0.164000      0.498452      0.162369     Biso  1.000000 C
   C18        1.0     0.273885      0.556918      0.166331     Biso  1.000000 C
   C19        1.0     0.164805      0.664602      0.149645     Biso  1.000000 C
   C20        1.0     0.275658      0.721548      0.150492     Biso  1.000000 C
   C21        1.0     0.166016      0.830982      0.149751     Biso  1.000000 C
   C22        1.0     0.277145      0.887115      0.148299     Biso  1.000000 C
   C23        1.0     0.334266      0.998040      0.151873     Biso  1.000000 C
   C24        1.0     0.445103      0.053651      0.153368     Biso  1.000000 C
   C25        1.0     0.334935      0.163551      0.165901     Biso  1.000000 C
   C26        1.0     0.448760      0.221383      0.165155     Biso  1.000000 C
   C27        1.0     0.327589      0.503130      0.180434     Biso  1.000000 C
   C28        1.0     0.438579      0.560551      0.184806     Biso  1.000000 C
   C29        1.0     0.330142      0.667157      0.159086     Biso  1.000000 C
   C30        1.0     0.440660      0.723816      0.163995     Biso  1.000000 C
   C31        1.0     0.332545      0.832405      0.148488     Biso  1.000000 C
   C32        1.0     0.443894      0.888347      0.152190     Biso  1.000000 C
   C33        1.0     0.500839      0.998691      0.153448     Biso  1.000000 C
   C34        1.0     0.611876      0.052214      0.158756     Biso  1.000000 C
   C35        1.0     0.501326      0.164508      0.158796     Biso  1.000000 C
   C36        1.0     0.612738      0.219968      0.160298     Biso  1.000000 C
   C37        1.0     0.611803      0.388370      0.168892     Biso  1.000000 C
   C38        1.0     0.494274      0.670019      0.176067     Biso  1.000000 C
   C39        1.0     0.498779      0.833435      0.159274     Biso  1.000000 C
   C40        1.0     0.609497      0.884422      0.165158     Biso  1.000000 C
   C41        1.0     0.666858      0.995759      0.163695     Biso  1.000000 C
   C42        1.0     0.778144      0.049918      0.168227     Biso  1.000000 C
   C43        1.0     0.667964      0.163669      0.160248     Biso  1.000000 C
   C44        1.0     0.779025      0.217866      0.162781     Biso  1.000000 C
   C45        1.0     0.667516      0.331201      0.162928     Biso  1.000000 C
   C46        1.0     0.778119      0.384788      0.161036     Biso  1.000000 C
   C47        1.0     0.775887      0.548900      0.165643     Biso  1.000000 C
   C48        1.0     0.660904      0.823897      0.172698     Biso  1.000000 C
   C49        1.0     0.773803      0.878293      0.173251     Biso  1.000000 C
   C50        1.0     0.832048      0.992131      0.171966     Biso  1.000000 C
   C51        1.0     0.944776      0.051012      0.173117     Biso  1.000000 C
   C52        1.0     0.834722      0.161592      0.166762     Biso  1.000000 C
   C53        1.0     0.946345      0.218194      0.169467     Biso  1.000000 C
   C54        1.0     0.833602      0.328978      0.160988     Biso  1.000000 C
   C55        1.0     0.944762      0.384993      0.160365     Biso  1.000000 C
   C56        1.0     0.832738      0.495933      0.160264     Biso  1.000000 C
   C57        1.0     0.943588      0.551969      0.155244     Biso  1.000000 C
   C58        1.0     0.833117      0.661472      0.165807     Biso  1.000000 C
   C59        1.0     0.943453      0.717407      0.159269     Biso  1.000000 C
   C60        1.0     0.829687      0.821903      0.172236     Biso  1.000000 C
   C61        1.0     0.942512      0.882703      0.168587     Biso  1.000000 C
   N1         1.0     0.280691      0.216350      0.174940     Biso  1.000000 N
   N2         1.0     0.277691      0.396120      0.186824     Biso  1.000000 N
   N3         1.0     0.504075      0.330382      0.172744     Biso  1.000000 N
   N4         1.0     0.495345      0.512518      0.192625     Biso  1.000000 N
   N5         1.0     0.601456      0.716257      0.178470     Biso  1.000000 N
   N6         1.0     0.667234      0.497232      0.171910     Biso  1.000000 N
   N7         1.0     0.777616      0.713086      0.172528     Biso  1.000000 N
   Co1        1.0     0.633774      0.608732      0.181465     Biso  1.000000 Co
   Cr1        1.0     0.394287      0.366406      0.192660     Biso  1.000000 Cr
