#======================================================================

# CRYSTAL DATA

#----------------------------------------------------------------------

data_VESTA_phase_1


_chemical_name_common                  'CONTCAR\(21)                          '
_cell_length_a                         14.76000
_cell_length_b                         14.76000
_cell_length_c                         15.00000
_cell_angle_alpha                      90
_cell_angle_beta                       90
_cell_angle_gamma                      120
_space_group_name_H-M_alt              'P 1'
_space_group_IT_number                 1

loop_
_space_group_symop_operation_xyz
   'x, y, z'

loop_
   _atom_site_label
   _atom_site_occupancy
   _atom_site_fract_x
   _atom_site_fract_y
   _atom_site_fract_z
   _atom_site_adp_type
   _atom_site_B_iso_or_equiv
   _atom_site_type_symbol
   C1         1.0     0.000896      0.998632      0.166670     Biso  1.000000 C
   C2         1.0     0.113670      0.056184      0.166670     Biso  1.000000 C
   C3         1.0     0.004908      0.167056      0.166670     Biso  1.000000 C
   C4         1.0     0.118955      0.225666      0.166670     Biso  1.000000 C
   C5         1.0     0.001680      0.332513      0.166670     Biso  1.000000 C
   C6         1.0     0.113124      0.389936      0.166670     Biso  1.000000 C
   C7         1.0     0.998840      0.498876      0.166670     Biso  1.000000 C
   C8         1.0     0.109265      0.555866      0.166670     Biso  1.000000 C
   C9         1.0     0.999387      0.665347      0.166670     Biso  1.000000 C
   C10        1.0     0.110322      0.722376      0.166670     Biso  1.000000 C
   C11        1.0    -0.000241      0.831896      0.166670     Biso  1.000000 C
   C12        1.0     0.111020      0.888587      0.166670     Biso  1.000000 C
   C13        1.0     0.167803     -0.000188      0.166670     Biso  1.000000 C
   C14        1.0     0.279578      0.055521      0.166670     Biso  1.000000 C
   C15        1.0     0.174833      0.169186      0.166670     Biso  1.000000 C
   C16        1.0     0.173650      0.338495      0.166670     Biso  1.000000 C
   C17        1.0     0.164416      0.501088      0.166670     Biso  1.000000 C
   C18        1.0     0.274187      0.559477      0.166670     Biso  1.000000 C
   C19        1.0     0.165116      0.667222      0.166670     Biso  1.000000 C
   C20        1.0     0.275786      0.724220      0.166670     Biso  1.000000 C
   C21        1.0     0.166501      0.833314      0.166670     Biso  1.000000 C
   C22        1.0     0.277502      0.889434      0.166670     Biso  1.000000 C
   C23        1.0     0.334599      0.000248      0.166670     Biso  1.000000 C
   C24        1.0     0.445298      0.055881      0.166670     Biso  1.000000 C
   C25        1.0     0.335702      0.165944      0.166670     Biso  1.000000 C
   C26        1.0     0.448427      0.223390      0.166670     Biso  1.000000 C
   C27        1.0     0.329009      0.505864      0.166670     Biso  1.000000 C
   C28        1.0     0.438854      0.562141      0.166670     Biso  1.000000 C
   C29        1.0     0.330456      0.669773      0.166670     Biso  1.000000 C
   C30        1.0     0.440926      0.726118      0.166670     Biso  1.000000 C
   C31        1.0     0.332793      0.834875      0.166670     Biso  1.000000 C
   C32        1.0     0.444149      0.890799      0.166670     Biso  1.000000 C
   C33        1.0     0.501107      0.001036      0.166670     Biso  1.000000 C
   C34        1.0     0.612251      0.054728      0.166670     Biso  1.000000 C
   C35        1.0     0.501537      0.166875      0.166670     Biso  1.000000 C
   C36        1.0     0.612808      0.222323      0.166670     Biso  1.000000 C
   C37        1.0     0.610439      0.390789      0.166670     Biso  1.000000 C
   C38        1.0     0.495022      0.671886      0.166670     Biso  1.000000 C
   C39        1.0     0.499106      0.835852      0.166670     Biso  1.000000 C
   C40        1.0     0.609954      0.886842      0.166670     Biso  1.000000 C
   C41        1.0     0.667358      0.998264      0.166670     Biso  1.000000 C
   C42        1.0     0.778874      0.052677      0.166670     Biso  1.000000 C
   C43        1.0     0.668280      0.166228      0.166670     Biso  1.000000 C
   C44        1.0     0.779453      0.220562      0.166670     Biso  1.000000 C
   C45        1.0     0.666781      0.333563      0.166670     Biso  1.000000 C
   C46        1.0     0.777868      0.387304      0.166670     Biso  1.000000 C
   C47        1.0     0.775861      0.551471      0.166670     Biso  1.000000 C
   C48        1.0     0.661351      0.825939      0.166670     Biso  1.000000 C
   C49        1.0     0.774346      0.880947      0.166670     Biso  1.000000 C
   C50        1.0     0.832799      0.994827      0.166670     Biso  1.000000 C
   C51        1.0     0.945729      0.054105      0.166670     Biso  1.000000 C
   C52        1.0     0.835414      0.164349      0.166670     Biso  1.000000 C
   C53        1.0     0.947297      0.221046      0.166670     Biso  1.000000 C
   C54        1.0     0.833856      0.331703      0.166670     Biso  1.000000 C
   C55        1.0     0.945283      0.387725      0.166670     Biso  1.000000 C
   C56        1.0     0.832725      0.498449      0.166670     Biso  1.000000 C
   C57        1.0     0.943817      0.554606      0.166670     Biso  1.000000 C
   C58        1.0     0.833130      0.664154      0.166670     Biso  1.000000 C
   C59        1.0     0.943826      0.720187      0.166670     Biso  1.000000 C
   C60        1.0     0.830154      0.824655      0.166670     Biso  1.000000 C
   C61        1.0     0.943258      0.885881      0.166670     Biso  1.000000 C
   N1         1.0     0.283285      0.221010      0.166670     Biso  1.000000 N
   N2         1.0     0.281808      0.398644      0.166670     Biso  1.000000 N
   N3         1.0     0.501265      0.332928      0.166670     Biso  1.000000 N
   N4         1.0     0.492555      0.510443      0.166670     Biso  1.000000 N
   N5         1.0     0.601976      0.718166      0.166670     Biso  1.000000 N
   N6         1.0     0.666633      0.499432      0.166670     Biso  1.000000 N
   N7         1.0     0.777728      0.715885      0.166670     Biso  1.000000 N
   Co1        1.0     0.632064      0.608139      0.166670     Biso  1.000000 Co
   Fe1        1.0     0.393271      0.368428      0.166670     Biso  1.000000 Fe
