#======================================================================

# CRYSTAL DATA

#----------------------------------------------------------------------

data_VESTA_phase_1


_chemical_name_common                  'POSCAR(5)                             '
_cell_length_a                         14.76000
_cell_length_b                         14.76000
_cell_length_c                         15.00000
_cell_angle_alpha                      90
_cell_angle_beta                       90
_cell_angle_gamma                      120
_space_group_name_H-M_alt              'P 1'
_space_group_IT_number                 1

loop_
_space_group_symop_operation_xyz
   'x, y, z'

loop_
   _atom_site_label
   _atom_site_occupancy
   _atom_site_fract_x
   _atom_site_fract_y
   _atom_site_fract_z
   _atom_site_adp_type
   _atom_site_B_iso_or_equiv
   _atom_site_type_symbol
   C1         1.0     0.001142      0.998922      0.167449     Biso  1.000000 C
   C2         1.0     0.114041      0.056677      0.167534     Biso  1.000000 C
   C3         1.0     0.005135      0.167196      0.167466     Biso  1.000000 C
   C4         1.0     0.119054      0.225724      0.167758     Biso  1.000000 C
   C5         1.0     0.001813      0.332625      0.166921     Biso  1.000000 C
   C6         1.0     0.113348      0.390012      0.166950     Biso  1.000000 C
   C7         1.0     0.998865      0.498973      0.166239     Biso  1.000000 C
   C8         1.0     0.109293      0.555870      0.165952     Biso  1.000000 C
   C9         1.0     0.999418      0.665376      0.166109     Biso  1.000000 C
   C10        1.0     0.110354      0.722431      0.165753     Biso  1.000000 C
   C11        1.0    -0.000112      0.832052      0.166742     Biso  1.000000 C
   C12        1.0     0.111213      0.888863      0.166496     Biso  1.000000 C
   C13        1.0     0.168055      0.000191      0.167054     Biso  1.000000 C
   C14        1.0     0.279792      0.056198      0.167028     Biso  1.000000 C
   C15        1.0     0.175384      0.169840      0.167909     Biso  1.000000 C
   C16        1.0     0.174240      0.338675      0.167589     Biso  1.000000 C
   C17        1.0     0.164499      0.500965      0.166327     Biso  1.000000 C
   C18        1.0     0.274308      0.559068      0.166249     Biso  1.000000 C
   C19        1.0     0.165164      0.667180      0.165509     Biso  1.000000 C
   C20        1.0     0.275920      0.724163      0.165282     Biso  1.000000 C
   C21        1.0     0.166570      0.833465      0.165885     Biso  1.000000 C
   C22        1.0     0.277626      0.889692      0.165750     Biso  1.000000 C
   C23        1.0     0.334689      0.000613      0.166304     Biso  1.000000 C
   C24        1.0     0.445418      0.056290      0.166417     Biso  1.000000 C
   C25        1.0     0.335766      0.166857      0.167721     Biso  1.000000 C
   C26        1.0     0.448494      0.224328      0.167667     Biso  1.000000 C
   C27        1.0     0.328959      0.505122      0.167327     Biso  1.000000 C
   C28        1.0     0.438801      0.561299      0.167795     Biso  1.000000 C
   C29        1.0     0.330509      0.669532      0.165668     Biso  1.000000 C
   C30        1.0     0.440993      0.725786      0.165930     Biso  1.000000 C
   C31        1.0     0.332895      0.834918      0.165309     Biso  1.000000 C
   C32        1.0     0.444212      0.890795      0.165600     Biso  1.000000 C
   C33        1.0     0.501131      0.001210      0.166096     Biso  1.000000 C
   C34        1.0     0.612299      0.054850      0.166429     Biso  1.000000 C
   C35        1.0     0.501560      0.167457      0.167073     Biso  1.000000 C
   C36        1.0     0.612698      0.222509      0.167021     Biso  1.000000 C
   C37        1.0     0.609411      0.390652      0.167754     Biso  1.000000 C
   C38        1.0     0.494975      0.671150      0.167035     Biso  1.000000 C
   C39        1.0     0.499100      0.835601      0.165808     Biso  1.000000 C
   C40        1.0     0.610063      0.886731      0.166463     Biso  1.000000 C
   C41        1.0     0.667451      0.998259      0.166569     Biso  1.000000 C
   C42        1.0     0.778899      0.052733      0.166935     Biso  1.000000 C
   C43        1.0     0.668263      0.166334      0.166693     Biso  1.000000 C
   C44        1.0     0.779437      0.220669      0.166767     Biso  1.000000 C
   C45        1.0     0.666348      0.333720      0.167341     Biso  1.000000 C
   C46        1.0     0.777556      0.387386      0.167027     Biso  1.000000 C
   C47        1.0     0.775721      0.551569      0.167273     Biso  1.000000 C
   C48        1.0     0.661403      0.825850      0.167119     Biso  1.000000 C
   C49        1.0     0.774335      0.881019      0.167387     Biso  1.000000 C
   C50        1.0     0.832890      0.994947      0.167234     Biso  1.000000 C
   C51        1.0     0.945855      0.054212      0.167416     Biso  1.000000 C
   C52        1.0     0.835545      0.164539      0.166921     Biso  1.000000 C
   C53        1.0     0.947359      0.221185      0.167161     Biso  1.000000 C
   C54        1.0     0.833759      0.331851      0.166813     Biso  1.000000 C
   C55        1.0     0.945248      0.387804      0.166645     Biso  1.000000 C
   C56        1.0     0.832593      0.498527      0.166902     Biso  1.000000 C
   C57        1.0     0.943753      0.554666      0.166295     Biso  1.000000 C
   C58        1.0     0.833195      0.664303      0.167077     Biso  1.000000 C
   C59        1.0     0.943856      0.720292      0.166579     Biso  1.000000 C
   C60        1.0     0.830220      0.824694      0.167394     Biso  1.000000 C
   C61        1.0     0.943404      0.886050      0.167237     Biso  1.000000 C
   N1         1.0     0.284056      0.222300      0.168146     Biso  1.000000 N
   N2         1.0     0.282257      0.398125      0.167975     Biso  1.000000 N
   N3         1.0     0.500344      0.333585      0.168085     Biso  1.000000 N
   N4         1.0     0.491585      0.508504      0.168576     Biso  1.000000 N
   N5         1.0     0.601959      0.717831      0.167525     Biso  1.000000 N
   N6         1.0     0.666439      0.499700      0.167831     Biso  1.000000 N
   N7         1.0     0.777757      0.716017      0.167469     Biso  1.000000 N
   Co1        1.0     0.631435      0.607003      0.168190     Biso  1.000000 Co
   Co2        1.0     0.393074      0.368626      0.168569     Biso  1.000000 Co
