#======================================================================

# CRYSTAL DATA

#----------------------------------------------------------------------

data_VESTA_phase_1


_chemical_name_common                  'CONTCAR\(10)                          '
_cell_length_a                         14.76000
_cell_length_b                         14.76000
_cell_length_c                         15.00000
_cell_angle_alpha                      90
_cell_angle_beta                       90
_cell_angle_gamma                      120
_space_group_name_H-M_alt              'P 1'
_space_group_IT_number                 1

loop_
_space_group_symop_operation_xyz
   'x, y, z'

loop_
   _atom_site_label
   _atom_site_occupancy
   _atom_site_fract_x
   _atom_site_fract_y
   _atom_site_fract_z
   _atom_site_adp_type
   _atom_site_B_iso_or_equiv
   _atom_site_type_symbol
   C1         1.0     0.001117      0.998848      0.166618     Biso  1.000000 C
   C2         1.0     0.114003      0.056499      0.167320     Biso  1.000000 C
   C3         1.0     0.005043      0.167149      0.167254     Biso  1.000000 C
   C4         1.0     0.118933      0.225583      0.167710     Biso  1.000000 C
   C5         1.0     0.001677      0.332569      0.167564     Biso  1.000000 C
   C6         1.0     0.113199      0.389883      0.167807     Biso  1.000000 C
   C7         1.0     0.998893      0.498924      0.166944     Biso  1.000000 C
   C8         1.0     0.109302      0.555794      0.167348     Biso  1.000000 C
   C9         1.0     0.999440      0.665329      0.165897     Biso  1.000000 C
   C10        1.0     0.110368      0.722314      0.166596     Biso  1.000000 C
   C11        1.0    -0.000147      0.831910      0.165826     Biso  1.000000 C
   C12        1.0     0.111133      0.888617      0.166667     Biso  1.000000 C
   C13        1.0     0.167988      0.000081      0.167352     Biso  1.000000 C
   C14        1.0     0.279675      0.056101      0.167783     Biso  1.000000 C
   C15        1.0     0.175442      0.169868      0.167775     Biso  1.000000 C
   C16        1.0     0.174091      0.338398      0.167763     Biso  1.000000 C
   C17        1.0     0.164522      0.500805      0.167737     Biso  1.000000 C
   C18        1.0     0.274317      0.558768      0.167311     Biso  1.000000 C
   C19        1.0     0.165147      0.667027      0.167073     Biso  1.000000 C
   C20        1.0     0.275966      0.723885      0.166907     Biso  1.000000 C
   C21        1.0     0.166583      0.833358      0.166812     Biso  1.000000 C
   C22        1.0     0.277659      0.889579      0.167100     Biso  1.000000 C
   C23        1.0     0.334633      0.000578      0.167494     Biso  1.000000 C
   C24        1.0     0.445386      0.056305      0.167291     Biso  1.000000 C
   C25        1.0     0.335686      0.166910      0.168040     Biso  1.000000 C
   C26        1.0     0.448356      0.224465      0.167665     Biso  1.000000 C
   C27        1.0     0.328878      0.504517      0.167052     Biso  1.000000 C
   C28        1.0     0.439077      0.560824      0.166206     Biso  1.000000 C
   C29        1.0     0.330495      0.669254      0.166708     Biso  1.000000 C
   C30        1.0     0.441183      0.725615      0.165839     Biso  1.000000 C
   C31        1.0     0.332894      0.834786      0.166777     Biso  1.000000 C
   C32        1.0     0.444225      0.890725      0.166352     Biso  1.000000 C
   C33        1.0     0.501071      0.001181      0.166601     Biso  1.000000 C
   C34        1.0     0.612296      0.054855      0.166285     Biso  1.000000 C
   C35        1.0     0.501436      0.167512      0.167373     Biso  1.000000 C
   C36        1.0     0.612583      0.222620      0.166809     Biso  1.000000 C
   C37        1.0     0.609248      0.390932      0.166348     Biso  1.000000 C
   C38        1.0     0.495183      0.671295      0.165610     Biso  1.000000 C
   C39        1.0     0.499192      0.835548      0.165661     Biso  1.000000 C
   C40        1.0     0.610090      0.886649      0.165384     Biso  1.000000 C
   C41        1.0     0.667458      0.998324      0.165750     Biso  1.000000 C
   C42        1.0     0.778858      0.052700      0.166057     Biso  1.000000 C
   C43        1.0     0.668191      0.166378      0.166543     Biso  1.000000 C
   C44        1.0     0.779339      0.220635      0.166639     Biso  1.000000 C
   C45        1.0     0.666194      0.333812      0.166416     Biso  1.000000 C
   C46        1.0     0.777449      0.387394      0.166222     Biso  1.000000 C
   C47        1.0     0.775888      0.551564      0.165193     Biso  1.000000 C
   C48        1.0     0.661437      0.825830      0.165188     Biso  1.000000 C
   C49        1.0     0.774366      0.880947      0.165386     Biso  1.000000 C
   C50        1.0     0.832880      0.994897      0.165957     Biso  1.000000 C
   C51        1.0     0.945780      0.054120      0.166609     Biso  1.000000 C
   C52        1.0     0.835455      0.164514      0.166654     Biso  1.000000 C
   C53        1.0     0.947294      0.221138      0.167206     Biso  1.000000 C
   C54        1.0     0.833616      0.331854      0.166709     Biso  1.000000 C
   C55        1.0     0.945158      0.387767      0.167121     Biso  1.000000 C
   C56        1.0     0.832657      0.498521      0.165714     Biso  1.000000 C
   C57        1.0     0.943810      0.554616      0.166089     Biso  1.000000 C
   C58        1.0     0.833195      0.664113      0.164850     Biso  1.000000 C
   C59        1.0     0.943846      0.720221      0.165317     Biso  1.000000 C
   C60        1.0     0.830171      0.824605      0.165268     Biso  1.000000 C
   C61        1.0     0.943258      0.885873      0.165819     Biso  1.000000 C
   N1         1.0     0.283799      0.222090      0.168020     Biso  1.000000 N
   N2         1.0     0.281858      0.397927      0.167499     Biso  1.000000 N
   N3         1.0     0.500413      0.333596      0.167109     Biso  1.000000 N
   N4         1.0     0.492950      0.510170      0.166176     Biso  1.000000 N
   N5         1.0     0.601904      0.717637      0.165141     Biso  1.000000 N
   N6         1.0     0.666570      0.499921      0.165570     Biso  1.000000 N
   N7         1.0     0.777485      0.715704      0.164859     Biso  1.000000 N
   Co1        1.0     0.631896      0.607290      0.165227     Biso  1.000000 Co
   Ni1        1.0     0.392274      0.367794      0.167300     Biso  1.000000 Ni
