#======================================================================

# CRYSTAL DATA

#----------------------------------------------------------------------

data_VESTA_phase_1


_chemical_name_common                  'CONTCAR\(53)                          '
_cell_length_a                         14.76000
_cell_length_b                         14.76000
_cell_length_c                         15.00000
_cell_angle_alpha                      90
_cell_angle_beta                       90
_cell_angle_gamma                      120
_space_group_name_H-M_alt              'P 1'
_space_group_IT_number                 1

loop_
_space_group_symop_operation_xyz
   'x, y, z'

loop_
   _atom_site_label
   _atom_site_occupancy
   _atom_site_fract_x
   _atom_site_fract_y
   _atom_site_fract_z
   _atom_site_adp_type
   _atom_site_B_iso_or_equiv
   _atom_site_type_symbol
   C1         1.0     0.000506      0.998467      0.167056     Biso  1.000000 C
   C2         1.0     0.113093      0.055890      0.167212     Biso  1.000000 C
   C3         1.0     0.004068      0.166643      0.167475     Biso  1.000000 C
   C4         1.0     0.118055      0.225209      0.167898     Biso  1.000000 C
   C5         1.0     0.001254      0.332319      0.166950     Biso  1.000000 C
   C6         1.0     0.112481      0.389735      0.167061     Biso  1.000000 C
   C7         1.0     0.999016      0.498868      0.166442     Biso  1.000000 C
   C8         1.0     0.109367      0.555895      0.166260     Biso  1.000000 C
   C9         1.0     0.999642      0.665444      0.166344     Biso  1.000000 C
   C10        1.0     0.110489      0.722509      0.166042     Biso  1.000000 C
   C11        1.0     0.999905      0.832095      0.166653     Biso  1.000000 C
   C12        1.0     0.111139      0.888799      0.166644     Biso  1.000000 C
   C13        1.0     0.167734      0.999940      0.166991     Biso  1.000000 C
   C14        1.0     0.279568      0.055735      0.167099     Biso  1.000000 C
   C15        1.0     0.173701      0.168654      0.167788     Biso  1.000000 C
   C16        1.0     0.172423      0.337968      0.167719     Biso  1.000000 C
   C17        1.0     0.164408      0.501080      0.166567     Biso  1.000000 C
   C18        1.0     0.274203      0.559534      0.166476     Biso  1.000000 C
   C19        1.0     0.165224      0.667314      0.165846     Biso  1.000000 C
   C20        1.0     0.275761      0.724290      0.165658     Biso  1.000000 C
   C21        1.0     0.166546      0.833402      0.166269     Biso  1.000000 C
   C22        1.0     0.277440      0.889497      0.166164     Biso  1.000000 C
   C23        1.0     0.334512      0.000395      0.166656     Biso  1.000000 C
   C24        1.0     0.445235      0.056003      0.166558     Biso  1.000000 C
   C25        1.0     0.335632      0.166248      0.167610     Biso  1.000000 C
   C26        1.0     0.448366      0.223430      0.167505     Biso  1.000000 C
   C27        1.0     0.328995      0.505817      0.167386     Biso  1.000000 C
   C28        1.0     0.438682      0.562127      0.167806     Biso  1.000000 C
   C29        1.0     0.330453      0.669782      0.165970     Biso  1.000000 C
   C30        1.0     0.440803      0.726096      0.166190     Biso  1.000000 C
   C31        1.0     0.332691      0.834893      0.165695     Biso  1.000000 C
   C32        1.0     0.444044      0.890863      0.165784     Biso  1.000000 C
   C33        1.0     0.500964      0.001056      0.166110     Biso  1.000000 C
   C34        1.0     0.612082      0.054700      0.166329     Biso  1.000000 C
   C35        1.0     0.501468      0.166948      0.167017     Biso  1.000000 C
   C36        1.0     0.612869      0.222476      0.166870     Biso  1.000000 C
   C37        1.0     0.612102      0.391546      0.167555     Biso  1.000000 C
   C38        1.0     0.494751      0.671623      0.167108     Biso  1.000000 C
   C39        1.0     0.498959      0.835822      0.165952     Biso  1.000000 C
   C40        1.0     0.609810      0.886783      0.166391     Biso  1.000000 C
   C41        1.0     0.667063      0.998130      0.166388     Biso  1.000000 C
   C42        1.0     0.778586      0.052534      0.166683     Biso  1.000000 C
   C43        1.0     0.668108      0.166237      0.166579     Biso  1.000000 C
   C44        1.0     0.779297      0.220509      0.166610     Biso  1.000000 C
   C45        1.0     0.667477      0.333799      0.167058     Biso  1.000000 C
   C46        1.0     0.778328      0.387464      0.166857     Biso  1.000000 C
   C47        1.0     0.776709      0.551873      0.167136     Biso  1.000000 C
   C48        1.0     0.661220      0.825830      0.166948     Biso  1.000000 C
   C49        1.0     0.774163      0.880808      0.167032     Biso  1.000000 C
   C50        1.0     0.832444      0.994701      0.166937     Biso  1.000000 C
   C51        1.0     0.945239      0.053896      0.167179     Biso  1.000000 C
   C52        1.0     0.835016      0.164134      0.166686     Biso  1.000000 C
   C53        1.0     0.946794      0.220795      0.167024     Biso  1.000000 C
   C54        1.0     0.833944      0.331646      0.166672     Biso  1.000000 C
   C55        1.0     0.945222      0.387679      0.166633     Biso  1.000000 C
   C56        1.0     0.833250      0.498626      0.166843     Biso  1.000000 C
   C57        1.0     0.944184      0.554705      0.166492     Biso  1.000000 C
   C58        1.0     0.833625      0.664339      0.166908     Biso  1.000000 C
   C59        1.0     0.944220      0.720385      0.166579     Biso  1.000000 C
   C60        1.0     0.830111      0.824725      0.167014     Biso  1.000000 C
   C61        1.0     0.943167      0.885864      0.166847     Biso  1.000000 C
   N1         1.0     0.281778      0.220305      0.168109     Biso  1.000000 N
   N2         1.0     0.280024      0.398044      0.168078     Biso  1.000000 N
   N3         1.0     0.503419      0.333498      0.167938     Biso  1.000000 N
   N4         1.0     0.494898      0.512173      0.168807     Biso  1.000000 N
   N5         1.0     0.602041      0.718116      0.167417     Biso  1.000000 N
   N6         1.0     0.667571      0.499968      0.167742     Biso  1.000000 N
   N7         1.0     0.778003      0.715934      0.167151     Biso  1.000000 N
   Co1        1.0     0.633502      0.609680      0.168051     Biso  1.000000 Co
   Mn1        1.0     0.395263      0.369861      0.168986     Biso  1.000000 Mn
