#======================================================================

# CRYSTAL DATA

#----------------------------------------------------------------------

data_VESTA_phase_1


_chemical_name_common                  '1\(2)                                 '
_cell_length_a                         14.76000
_cell_length_b                         14.76000
_cell_length_c                         15.00000
_cell_angle_alpha                      90
_cell_angle_beta                       90
_cell_angle_gamma                      120
_space_group_name_H-M_alt              'P 1'
_space_group_IT_number                 1

loop_
_space_group_symop_operation_xyz
   'x, y, z'

loop_
   _atom_site_label
   _atom_site_occupancy
   _atom_site_fract_x
   _atom_site_fract_y
   _atom_site_fract_z
   _atom_site_adp_type
   _atom_site_B_iso_or_equiv
   _atom_site_type_symbol
   C1         1.0     0.000526      0.998390      0.169868     Biso  1.000000 C
   C2         1.0     0.113101      0.055670      0.170480     Biso  1.000000 C
   C3         1.0     0.004667      0.167017      0.169220     Biso  1.000000 C
   C4         1.0     0.118659      0.225447      0.170041     Biso  1.000000 C
   C5         1.0     0.001494      0.332620      0.165896     Biso  1.000000 C
   C6         1.0     0.112770      0.389917      0.164931     Biso  1.000000 C
   C7         1.0     0.999011      0.498985      0.163082     Biso  1.000000 C
   C8         1.0     0.109432      0.555894      0.161676     Biso  1.000000 C
   C9         1.0     0.999509      0.665349      0.163798     Biso  1.000000 C
   C10        1.0     0.110372      0.722362      0.162230     Biso  1.000000 C
   C11        1.0    -0.000255      0.831816      0.167570     Biso  1.000000 C
   C12        1.0     0.110877      0.888397      0.166408     Biso  1.000000 C
   C13        1.0     0.167656     -0.000273      0.168320     Biso  1.000000 C
   C14        1.0     0.279383      0.055557      0.166476     Biso  1.000000 C
   C15        1.0     0.174402      0.168761      0.173178     Biso  1.000000 C
   C16        1.0     0.173270      0.338299      0.166071     Biso  1.000000 C
   C17        1.0     0.164716      0.500958      0.162681     Biso  1.000000 C
   C18        1.0     0.274586      0.559123      0.163785     Biso  1.000000 C
   C19        1.0     0.165180      0.667106      0.161009     Biso  1.000000 C
   C20        1.0     0.275879      0.724015      0.160732     Biso  1.000000 C
   C21        1.0     0.166377      0.833235      0.163284     Biso  1.000000 C
   C22        1.0     0.277443      0.889408      0.162335     Biso  1.000000 C
   C23        1.0     0.334486      0.000370      0.164010     Biso  1.000000 C
   C24        1.0     0.445277      0.056171      0.165007     Biso  1.000000 C
   C25        1.0     0.335145      0.166405      0.169693     Biso  1.000000 C
   C26        1.0     0.448469      0.224467      0.166519     Biso  1.000000 C
   C27        1.0     0.329156      0.504614      0.166082     Biso  1.000000 C
   C28        1.0     0.439699      0.561446      0.172390     Biso  1.000000 C
   C29        1.0     0.330469      0.669332      0.162140     Biso  1.000000 C
   C30        1.0     0.441224      0.725719      0.162732     Biso  1.000000 C
   C31        1.0     0.332736      0.834767      0.161212     Biso  1.000000 C
   C32        1.0     0.444156      0.890662      0.162404     Biso  1.000000 C
   C33        1.0     0.500938      0.001049      0.164057     Biso  1.000000 C
   C34        1.0     0.612183      0.054840      0.165650     Biso  1.000000 C
   C35        1.0     0.501358      0.167295      0.166617     Biso  1.000000 C
   C36        1.0     0.612613      0.222565      0.166652     Biso  1.000000 C
   C37        1.0     0.610335      0.390970      0.165907     Biso  1.000000 C
   C38        1.0     0.495226      0.671583      0.165737     Biso  1.000000 C
   C39        1.0     0.499270      0.835653      0.163016     Biso  1.000000 C
   C40        1.0     0.610137      0.886885      0.165335     Biso  1.000000 C
   C41        1.0     0.667356      0.998449      0.166199     Biso  1.000000 C
   C42        1.0     0.778797      0.052831      0.167727     Biso  1.000000 C
   C43        1.0     0.668136      0.166346      0.166589     Biso  1.000000 C
   C44        1.0     0.779319      0.220674      0.167013     Biso  1.000000 C
   C45        1.0     0.666802      0.333797      0.166977     Biso  1.000000 C
   C46        1.0     0.777874      0.387479      0.166275     Biso  1.000000 C
   C47        1.0     0.776245      0.551856      0.166786     Biso  1.000000 C
   C48        1.0     0.661656      0.826252      0.168119     Biso  1.000000 C
   C49        1.0     0.774385      0.881096      0.169824     Biso  1.000000 C
   C50        1.0     0.832798      0.995119      0.169172     Biso  1.000000 C
   C51        1.0     0.945452      0.054097      0.169972     Biso  1.000000 C
   C52        1.0     0.835345      0.164566      0.167427     Biso  1.000000 C
   C53        1.0     0.947172      0.221164      0.167475     Biso  1.000000 C
   C54        1.0     0.833785      0.331881      0.166398     Biso  1.000000 C
   C55        1.0     0.945196      0.387864      0.165148     Biso  1.000000 C
   C56        1.0     0.832884      0.498617      0.165378     Biso  1.000000 C
   C57        1.0     0.943946      0.554671      0.163748     Biso  1.000000 C
   C58        1.0     0.833423      0.664152      0.168054     Biso  1.000000 C
   C59        1.0     0.943964      0.720211      0.166257     Biso  1.000000 C
   C60        1.0     0.830050      0.824645      0.170516     Biso  1.000000 C
   C61        1.0     0.943021      0.885686      0.169231     Biso  1.000000 C
   N1         1.0     0.281842      0.219496      0.177824     Biso  1.000000 N
   N2         1.0     0.280607      0.398245      0.162018     Biso  1.000000 N
   N3         1.0     0.502279      0.333408      0.161889     Biso  1.000000 N
   N4         1.0     0.495631      0.514913      0.190979     Biso  1.000000 N
   N5         1.0     0.602233      0.718240      0.169209     Biso  1.000000 N
   N6         1.0     0.666782      0.500064      0.166992     Biso  1.000000 N
   N7         1.0     0.777658      0.715845      0.171792     Biso  1.000000 N
   Co1        1.0     0.632619      0.608760      0.176049     Biso  1.000000 Co
   Cu1        1.0     0.393898      0.368893      0.175256     Biso  1.000000 Cu
