#======================================================================

# CRYSTAL DATA

#----------------------------------------------------------------------

data_VESTA_phase_1


_chemical_name_common                  'graphite\(2)\(0\0\-1)                 '
_cell_length_a                         14.76000
_cell_length_b                         14.76000
_cell_length_c                         15.00000
_cell_angle_alpha                      90
_cell_angle_beta                       90
_cell_angle_gamma                      120
_space_group_name_H-M_alt              'P 1'
_space_group_IT_number                 1

loop_
_space_group_symop_operation_xyz
   'x, y, z'

loop_
   _atom_site_label
   _atom_site_occupancy
   _atom_site_fract_x
   _atom_site_fract_y
   _atom_site_fract_z
   _atom_site_adp_type
   _atom_site_B_iso_or_equiv
   _atom_site_type_symbol
   C1         1.0     0.002827      0.001600      0.166670     Biso  1.000000 C
   C2         1.0     0.114803      0.057191      0.166670     Biso  1.000000 C
   C3         1.0     0.006991      0.170163      0.166670     Biso  1.000000 C
   C4         1.0     0.120542      0.226938      0.166670     Biso  1.000000 C
   C5         1.0     0.002827      0.334561      0.166670     Biso  1.000000 C
   C6         1.0     0.114803      0.390947      0.166670     Biso  1.000000 C
   C7         1.0    -0.001530      0.499784      0.166670     Biso  1.000000 C
   C8         1.0     0.109918      0.555724      0.166670     Biso  1.000000 C
   C9         1.0    -0.002576      0.665379      0.166670     Biso  1.000000 C
   C10        1.0     0.109263      0.721298      0.166670     Biso  1.000000 C
   C11        1.0    -0.001530      0.832022      0.166670     Biso  1.000000 C
   C12        1.0     0.109918      0.887528      0.166670     Biso  1.000000 C
   C13        1.0     0.166791     -0.001565      0.166670     Biso  1.000000 C
   C14        1.0     0.277891      0.052736      0.166670     Biso  1.000000 C
   C15        1.0     0.175695      0.169746      0.166670     Biso  1.000000 C
   C16        1.0     0.175695      0.339284      0.166670     Biso  1.000000 C
   C17        1.0     0.166792      0.501691      0.166670     Biso  1.000000 C
   C18        1.0     0.277892      0.558489      0.166670     Biso  1.000000 C
   C19        1.0     0.165552      0.666742      0.166670     Biso  1.000000 C
   C20        1.0     0.276857      0.722752      0.166670     Biso  1.000000 C
   C21        1.0     0.165552      0.832143      0.166670     Biso  1.000000 C
   C22        1.0     0.276856      0.887437      0.166670     Biso  1.000000 C
   C23        1.0     0.333564     -0.002223      0.166670     Biso  1.000000 C
   C24        1.0     0.444236      0.053130      0.166670     Biso  1.000000 C
   C25        1.0     0.333394      0.162127      0.166670     Biso  1.000000 C
   C26        1.0     0.444446      0.217670      0.166670     Biso  1.000000 C
   C27        1.0     0.333396      0.504602      0.166670     Biso  1.000000 C
   C28        1.0     0.444449      0.560112      0.166670     Biso  1.000000 C
   C29        1.0     0.333566      0.669122      0.166670     Biso  1.000000 C
   C30        1.0     0.444238      0.724441      0.166670     Biso  1.000000 C
   C31        1.0     0.333192      0.833263      0.166670     Biso  1.000000 C
   C32        1.0     0.444659      0.888996      0.166670     Biso  1.000000 C
   C33        1.0     0.500909     -0.000504      0.166670     Biso  1.000000 C
   C34        1.0     0.612208      0.055423      0.166670     Biso  1.000000 C
   C35        1.0     0.499931      0.163716      0.166670     Biso  1.000000 C
   C36        1.0     0.610997      0.220447      0.166670     Biso  1.000000 C
   C37        1.0     0.602065      0.382891      0.166670     Biso  1.000000 C
   C38        1.0     0.602066      0.552511      0.166670     Biso  1.000000 C
   C39        1.0     0.499933      0.669551      0.166670     Biso  1.000000 C
   C40        1.0     0.610999      0.723888      0.166670     Biso  1.000000 C
   C41        1.0     0.500910      0.834750      0.166670     Biso  1.000000 C
   C42        1.0     0.612209      0.890125      0.166670     Biso  1.000000 C
   C43        1.0     0.668461      0.000900      0.166670     Biso  1.000000 C
   C44        1.0     0.780241      0.056787      0.166670     Biso  1.000000 C
   C45        1.0     0.667834      0.166421      0.166670     Biso  1.000000 C
   C46        1.0     0.779352      0.222360      0.166670     Biso  1.000000 C
   C47        1.0     0.662915      0.331165      0.166670     Biso  1.000000 C
   C48        1.0     0.774944      0.387536      0.166670     Biso  1.000000 C
   C49        1.0     0.657128      0.495232      0.166670     Biso  1.000000 C
   C50        1.0     0.770743      0.552039      0.166670     Biso  1.000000 C
   C51        1.0     0.662916      0.665086      0.166670     Biso  1.000000 C
   C52        1.0     0.774945      0.720744      0.166670     Biso  1.000000 C
   C53        1.0     0.667833      0.834752      0.166670     Biso  1.000000 C
   C54        1.0     0.779350      0.890326      0.166670     Biso  1.000000 C
   C55        1.0     0.836530      0.002044      0.166670     Biso  1.000000 C
   C56        1.0     0.948592      0.058305      0.166670     Biso  1.000000 C
   C57        1.0     0.836530      0.167821      0.166670     Biso  1.000000 C
   C58        1.0     0.948592      0.223621      0.166670     Biso  1.000000 C
   C59        1.0     0.832980      0.333221      0.166670     Biso  1.000000 C
   C60        1.0     0.944950      0.388938      0.166670     Biso  1.000000 C
   C61        1.0     0.829091      0.498497      0.166670     Biso  1.000000 C
   C62        1.0     0.941238      0.554312      0.166670     Biso  1.000000 C
   C63        1.0     0.829091      0.663928      0.166670     Biso  1.000000 C
   C64        1.0     0.941239      0.720262      0.166670     Biso  1.000000 C
   C65        1.0     0.832978      0.833093      0.166670     Biso  1.000000 C
   C66        1.0     0.944949      0.889347      0.166670     Biso  1.000000 C
   N1         1.0     0.284054      0.220422      0.166670     Biso  1.000000 N
   N2         1.0     0.284054      0.396966      0.166670     Biso  1.000000 N
   N3         1.0     0.493730      0.325264      0.166670     Biso  1.000000 N
   N4         1.0     0.493732      0.501801      0.166670     Biso  1.000000 N
   Co1        1.0     0.388905      0.361119      0.166670     Biso  1.000000 Co
